
---------- Begin Simulation Statistics ----------
sim_seconds                                  0.049339                       # Number of seconds simulated
sim_ticks                                 49339052000                       # Number of ticks simulated
final_tick                                49339052000                       # Number of ticks from beginning of simulation (restored from checkpoints and never reset)
sim_freq                                 1000000000000                       # Frequency of simulated ticks
host_inst_rate                                1288690                       # Simulator instruction rate (inst/s)
host_op_rate                                  2472953                       # Simulator op (including micro ops) rate (op/s)
host_tick_rate                             4754753616                       # Simulator tick rate (ticks/s)
host_mem_usage                                 704420                       # Number of bytes of host memory used
host_seconds                                    10.38                       # Real time elapsed on the host
sim_insts                                    13372438                       # Number of instructions simulated
sim_ops                                      25661278                       # Number of ops (including micro ops) simulated
system.clk_domain.voltage_domain.voltage            1                       # Voltage in Volts
system.clk_domain.clock                          1000                       # Clock period in ticks
system.mem_ctrl.pwrStateResidencyTicks::UNDEFINED  49339052000                       # Cumulative time (in ticks) in various power states
system.mem_ctrl.bytes_read::cpu.inst           133888                       # Number of bytes read from this memory
system.mem_ctrl.bytes_read::cpu.data          4271552                       # Number of bytes read from this memory
system.mem_ctrl.bytes_read::total             4405440                       # Number of bytes read from this memory
system.mem_ctrl.bytes_inst_read::cpu.inst       133888                       # Number of instructions bytes read from this memory
system.mem_ctrl.bytes_inst_read::total         133888                       # Number of instructions bytes read from this memory
system.mem_ctrl.bytes_written::writebacks      1797696                       # Number of bytes written to this memory
system.mem_ctrl.bytes_written::total          1797696                       # Number of bytes written to this memory
system.mem_ctrl.num_reads::cpu.inst              2092                       # Number of read requests responded to by this memory
system.mem_ctrl.num_reads::cpu.data             66743                       # Number of read requests responded to by this memory
system.mem_ctrl.num_reads::total                68835                       # Number of read requests responded to by this memory
system.mem_ctrl.num_writes::writebacks          28089                       # Number of write requests responded to by this memory
system.mem_ctrl.num_writes::total               28089                       # Number of write requests responded to by this memory
system.mem_ctrl.bw_read::cpu.inst             2713631                       # Total read bandwidth from this memory (bytes/s)
system.mem_ctrl.bw_read::cpu.data            86575478                       # Total read bandwidth from this memory (bytes/s)
system.mem_ctrl.bw_read::total               89289109                       # Total read bandwidth from this memory (bytes/s)
system.mem_ctrl.bw_inst_read::cpu.inst        2713631                       # Instruction read bandwidth from this memory (bytes/s)
system.mem_ctrl.bw_inst_read::total           2713631                       # Instruction read bandwidth from this memory (bytes/s)
system.mem_ctrl.bw_write::writebacks         36435560                       # Write bandwidth from this memory (bytes/s)
system.mem_ctrl.bw_write::total              36435560                       # Write bandwidth from this memory (bytes/s)
system.mem_ctrl.bw_total::writebacks         36435560                       # Total bandwidth to/from this memory (bytes/s)
system.mem_ctrl.bw_total::cpu.inst            2713631                       # Total bandwidth to/from this memory (bytes/s)
system.mem_ctrl.bw_total::cpu.data           86575478                       # Total bandwidth to/from this memory (bytes/s)
system.mem_ctrl.bw_total::total             125724669                       # Total bandwidth to/from this memory (bytes/s)
system.mem_ctrl.readReqs                        68835                       # Number of read requests accepted
system.mem_ctrl.writeReqs                       28089                       # Number of write requests accepted
system.mem_ctrl.readBursts                      68835                       # Number of DRAM read bursts, including those serviced by the write queue
system.mem_ctrl.writeBursts                     28089                       # Number of DRAM write bursts, including those merged in the write queue
system.mem_ctrl.bytesReadDRAM                 4386560                       # Total number of bytes read from DRAM
system.mem_ctrl.bytesReadWrQ                    18880                       # Total number of bytes read from write queue
system.mem_ctrl.bytesWritten                  1796096                       # Total number of bytes written to DRAM
system.mem_ctrl.bytesReadSys                  4405440                       # Total read bytes from the system interface side
system.mem_ctrl.bytesWrittenSys               1797696                       # Total written bytes from the system interface side
system.mem_ctrl.servicedByWrQ                     295                       # Number of DRAM read bursts serviced by the write queue
system.mem_ctrl.mergedWrBursts                      1                       # Number of DRAM write bursts merged with an existing one
system.mem_ctrl.neitherReadNorWriteReqs             0                       # Number of requests that are neither read nor write
system.mem_ctrl.perBankRdBursts::0               4243                       # Per bank write bursts
system.mem_ctrl.perBankRdBursts::1               4148                       # Per bank write bursts
system.mem_ctrl.perBankRdBursts::2               4339                       # Per bank write bursts
system.mem_ctrl.perBankRdBursts::3               4397                       # Per bank write bursts
system.mem_ctrl.perBankRdBursts::4               4211                       # Per bank write bursts
system.mem_ctrl.perBankRdBursts::5               3401                       # Per bank write bursts
system.mem_ctrl.perBankRdBursts::6               3694                       # Per bank write bursts
system.mem_ctrl.perBankRdBursts::7               3808                       # Per bank write bursts
system.mem_ctrl.perBankRdBursts::8               4808                       # Per bank write bursts
system.mem_ctrl.perBankRdBursts::9               4314                       # Per bank write bursts
system.mem_ctrl.perBankRdBursts::10              4493                       # Per bank write bursts
system.mem_ctrl.perBankRdBursts::11              4311                       # Per bank write bursts
system.mem_ctrl.perBankRdBursts::12              5117                       # Per bank write bursts
system.mem_ctrl.perBankRdBursts::13              5028                       # Per bank write bursts
system.mem_ctrl.perBankRdBursts::14              4161                       # Per bank write bursts
system.mem_ctrl.perBankRdBursts::15              4067                       # Per bank write bursts
system.mem_ctrl.perBankWrBursts::0               1644                       # Per bank write bursts
system.mem_ctrl.perBankWrBursts::1               1649                       # Per bank write bursts
system.mem_ctrl.perBankWrBursts::2               1838                       # Per bank write bursts
system.mem_ctrl.perBankWrBursts::3               1912                       # Per bank write bursts
system.mem_ctrl.perBankWrBursts::4               1838                       # Per bank write bursts
system.mem_ctrl.perBankWrBursts::5               1374                       # Per bank write bursts
system.mem_ctrl.perBankWrBursts::6               1652                       # Per bank write bursts
system.mem_ctrl.perBankWrBursts::7               1752                       # Per bank write bursts
system.mem_ctrl.perBankWrBursts::8               1882                       # Per bank write bursts
system.mem_ctrl.perBankWrBursts::9               1653                       # Per bank write bursts
system.mem_ctrl.perBankWrBursts::10              1730                       # Per bank write bursts
system.mem_ctrl.perBankWrBursts::11              1819                       # Per bank write bursts
system.mem_ctrl.perBankWrBursts::12              2061                       # Per bank write bursts
system.mem_ctrl.perBankWrBursts::13              2149                       # Per bank write bursts
system.mem_ctrl.perBankWrBursts::14              1608                       # Per bank write bursts
system.mem_ctrl.perBankWrBursts::15              1503                       # Per bank write bursts
system.mem_ctrl.numRdRetry                          0                       # Number of times read queue was full causing retry
system.mem_ctrl.numWrRetry                          0                       # Number of times write queue was full causing retry
system.mem_ctrl.totGap                    49338947000                       # Total gap between requests
system.mem_ctrl.readPktSize::0                      0                       # Read request sizes (log2)
system.mem_ctrl.readPktSize::1                      0                       # Read request sizes (log2)
system.mem_ctrl.readPktSize::2                      0                       # Read request sizes (log2)
system.mem_ctrl.readPktSize::3                      0                       # Read request sizes (log2)
system.mem_ctrl.readPktSize::4                      0                       # Read request sizes (log2)
system.mem_ctrl.readPktSize::5                      0                       # Read request sizes (log2)
system.mem_ctrl.readPktSize::6                  68835                       # Read request sizes (log2)
system.mem_ctrl.writePktSize::0                     0                       # Write request sizes (log2)
system.mem_ctrl.writePktSize::1                     0                       # Write request sizes (log2)
system.mem_ctrl.writePktSize::2                     0                       # Write request sizes (log2)
system.mem_ctrl.writePktSize::3                     0                       # Write request sizes (log2)
system.mem_ctrl.writePktSize::4                     0                       # Write request sizes (log2)
system.mem_ctrl.writePktSize::5                     0                       # Write request sizes (log2)
system.mem_ctrl.writePktSize::6                 28089                       # Write request sizes (log2)
system.mem_ctrl.rdQLenPdf::0                    68538                       # What read queue length does an incoming req see
system.mem_ctrl.rdQLenPdf::1                        2                       # What read queue length does an incoming req see
system.mem_ctrl.rdQLenPdf::2                        0                       # What read queue length does an incoming req see
system.mem_ctrl.rdQLenPdf::3                        0                       # What read queue length does an incoming req see
system.mem_ctrl.rdQLenPdf::4                        0                       # What read queue length does an incoming req see
system.mem_ctrl.rdQLenPdf::5                        0                       # What read queue length does an incoming req see
system.mem_ctrl.rdQLenPdf::6                        0                       # What read queue length does an incoming req see
system.mem_ctrl.rdQLenPdf::7                        0                       # What read queue length does an incoming req see
system.mem_ctrl.rdQLenPdf::8                        0                       # What read queue length does an incoming req see
system.mem_ctrl.rdQLenPdf::9                        0                       # What read queue length does an incoming req see
system.mem_ctrl.rdQLenPdf::10                       0                       # What read queue length does an incoming req see
system.mem_ctrl.rdQLenPdf::11                       0                       # What read queue length does an incoming req see
system.mem_ctrl.rdQLenPdf::12                       0                       # What read queue length does an incoming req see
system.mem_ctrl.rdQLenPdf::13                       0                       # What read queue length does an incoming req see
system.mem_ctrl.rdQLenPdf::14                       0                       # What read queue length does an incoming req see
system.mem_ctrl.rdQLenPdf::15                       0                       # What read queue length does an incoming req see
system.mem_ctrl.rdQLenPdf::16                       0                       # What read queue length does an incoming req see
system.mem_ctrl.rdQLenPdf::17                       0                       # What read queue length does an incoming req see
system.mem_ctrl.rdQLenPdf::18                       0                       # What read queue length does an incoming req see
system.mem_ctrl.rdQLenPdf::19                       0                       # What read queue length does an incoming req see
system.mem_ctrl.rdQLenPdf::20                       0                       # What read queue length does an incoming req see
system.mem_ctrl.rdQLenPdf::21                       0                       # What read queue length does an incoming req see
system.mem_ctrl.rdQLenPdf::22                       0                       # What read queue length does an incoming req see
system.mem_ctrl.rdQLenPdf::23                       0                       # What read queue length does an incoming req see
system.mem_ctrl.rdQLenPdf::24                       0                       # What read queue length does an incoming req see
system.mem_ctrl.rdQLenPdf::25                       0                       # What read queue length does an incoming req see
system.mem_ctrl.rdQLenPdf::26                       0                       # What read queue length does an incoming req see
system.mem_ctrl.rdQLenPdf::27                       0                       # What read queue length does an incoming req see
system.mem_ctrl.rdQLenPdf::28                       0                       # What read queue length does an incoming req see
system.mem_ctrl.rdQLenPdf::29                       0                       # What read queue length does an incoming req see
system.mem_ctrl.rdQLenPdf::30                       0                       # What read queue length does an incoming req see
system.mem_ctrl.rdQLenPdf::31                       0                       # What read queue length does an incoming req see
system.mem_ctrl.wrQLenPdf::0                        1                       # What write queue length does an incoming req see
system.mem_ctrl.wrQLenPdf::1                        1                       # What write queue length does an incoming req see
system.mem_ctrl.wrQLenPdf::2                        1                       # What write queue length does an incoming req see
system.mem_ctrl.wrQLenPdf::3                        1                       # What write queue length does an incoming req see
system.mem_ctrl.wrQLenPdf::4                        1                       # What write queue length does an incoming req see
system.mem_ctrl.wrQLenPdf::5                        1                       # What write queue length does an incoming req see
system.mem_ctrl.wrQLenPdf::6                        1                       # What write queue length does an incoming req see
system.mem_ctrl.wrQLenPdf::7                        1                       # What write queue length does an incoming req see
system.mem_ctrl.wrQLenPdf::8                        1                       # What write queue length does an incoming req see
system.mem_ctrl.wrQLenPdf::9                        1                       # What write queue length does an incoming req see
system.mem_ctrl.wrQLenPdf::10                       1                       # What write queue length does an incoming req see
system.mem_ctrl.wrQLenPdf::11                       1                       # What write queue length does an incoming req see
system.mem_ctrl.wrQLenPdf::12                       1                       # What write queue length does an incoming req see
system.mem_ctrl.wrQLenPdf::13                       1                       # What write queue length does an incoming req see
system.mem_ctrl.wrQLenPdf::14                       1                       # What write queue length does an incoming req see
system.mem_ctrl.wrQLenPdf::15                    1203                       # What write queue length does an incoming req see
system.mem_ctrl.wrQLenPdf::16                    1210                       # What write queue length does an incoming req see
system.mem_ctrl.wrQLenPdf::17                    1597                       # What write queue length does an incoming req see
system.mem_ctrl.wrQLenPdf::18                    1601                       # What write queue length does an incoming req see
system.mem_ctrl.wrQLenPdf::19                    1601                       # What write queue length does an incoming req see
system.mem_ctrl.wrQLenPdf::20                    1601                       # What write queue length does an incoming req see
system.mem_ctrl.wrQLenPdf::21                    1601                       # What write queue length does an incoming req see
system.mem_ctrl.wrQLenPdf::22                    1601                       # What write queue length does an incoming req see
system.mem_ctrl.wrQLenPdf::23                    1620                       # What write queue length does an incoming req see
system.mem_ctrl.wrQLenPdf::24                    1603                       # What write queue length does an incoming req see
system.mem_ctrl.wrQLenPdf::25                    1603                       # What write queue length does an incoming req see
system.mem_ctrl.wrQLenPdf::26                    1629                       # What write queue length does an incoming req see
system.mem_ctrl.wrQLenPdf::27                    1602                       # What write queue length does an incoming req see
system.mem_ctrl.wrQLenPdf::28                    1600                       # What write queue length does an incoming req see
system.mem_ctrl.wrQLenPdf::29                    1600                       # What write queue length does an incoming req see
system.mem_ctrl.wrQLenPdf::30                    1600                       # What write queue length does an incoming req see
system.mem_ctrl.wrQLenPdf::31                    1600                       # What write queue length does an incoming req see
system.mem_ctrl.wrQLenPdf::32                    1601                       # What write queue length does an incoming req see
system.mem_ctrl.wrQLenPdf::33                       0                       # What write queue length does an incoming req see
system.mem_ctrl.wrQLenPdf::34                       0                       # What write queue length does an incoming req see
system.mem_ctrl.wrQLenPdf::35                       0                       # What write queue length does an incoming req see
system.mem_ctrl.wrQLenPdf::36                       0                       # What write queue length does an incoming req see
system.mem_ctrl.wrQLenPdf::37                       0                       # What write queue length does an incoming req see
system.mem_ctrl.wrQLenPdf::38                       0                       # What write queue length does an incoming req see
system.mem_ctrl.wrQLenPdf::39                       0                       # What write queue length does an incoming req see
system.mem_ctrl.wrQLenPdf::40                       0                       # What write queue length does an incoming req see
system.mem_ctrl.wrQLenPdf::41                       0                       # What write queue length does an incoming req see
system.mem_ctrl.wrQLenPdf::42                       0                       # What write queue length does an incoming req see
system.mem_ctrl.wrQLenPdf::43                       0                       # What write queue length does an incoming req see
system.mem_ctrl.wrQLenPdf::44                       0                       # What write queue length does an incoming req see
system.mem_ctrl.wrQLenPdf::45                       0                       # What write queue length does an incoming req see
system.mem_ctrl.wrQLenPdf::46                       0                       # What write queue length does an incoming req see
system.mem_ctrl.wrQLenPdf::47                       0                       # What write queue length does an incoming req see
system.mem_ctrl.wrQLenPdf::48                       0                       # What write queue length does an incoming req see
system.mem_ctrl.wrQLenPdf::49                       0                       # What write queue length does an incoming req see
system.mem_ctrl.wrQLenPdf::50                       0                       # What write queue length does an incoming req see
system.mem_ctrl.wrQLenPdf::51                       0                       # What write queue length does an incoming req see
system.mem_ctrl.wrQLenPdf::52                       0                       # What write queue length does an incoming req see
system.mem_ctrl.wrQLenPdf::53                       0                       # What write queue length does an incoming req see
system.mem_ctrl.wrQLenPdf::54                       0                       # What write queue length does an incoming req see
system.mem_ctrl.wrQLenPdf::55                       0                       # What write queue length does an incoming req see
system.mem_ctrl.wrQLenPdf::56                       0                       # What write queue length does an incoming req see
system.mem_ctrl.wrQLenPdf::57                       0                       # What write queue length does an incoming req see
system.mem_ctrl.wrQLenPdf::58                       0                       # What write queue length does an incoming req see
system.mem_ctrl.wrQLenPdf::59                       0                       # What write queue length does an incoming req see
system.mem_ctrl.wrQLenPdf::60                       0                       # What write queue length does an incoming req see
system.mem_ctrl.wrQLenPdf::61                       0                       # What write queue length does an incoming req see
system.mem_ctrl.wrQLenPdf::62                       0                       # What write queue length does an incoming req see
system.mem_ctrl.wrQLenPdf::63                       0                       # What write queue length does an incoming req see
system.mem_ctrl.bytesPerActivate::samples        36145                       # Bytes accessed per row activation
system.mem_ctrl.bytesPerActivate::mean     171.033781                       # Bytes accessed per row activation
system.mem_ctrl.bytesPerActivate::gmean    112.405707                       # Bytes accessed per row activation
system.mem_ctrl.bytesPerActivate::stdev    211.646431                       # Bytes accessed per row activation
system.mem_ctrl.bytesPerActivate::0-127         21046     58.23%     58.23% # Bytes accessed per row activation
system.mem_ctrl.bytesPerActivate::128-255         7754     21.45%     79.68% # Bytes accessed per row activation
system.mem_ctrl.bytesPerActivate::256-383         3251      8.99%     88.67% # Bytes accessed per row activation
system.mem_ctrl.bytesPerActivate::384-511         1053      2.91%     91.59% # Bytes accessed per row activation
system.mem_ctrl.bytesPerActivate::512-639          560      1.55%     93.14% # Bytes accessed per row activation
system.mem_ctrl.bytesPerActivate::640-767         1069      2.96%     96.09% # Bytes accessed per row activation
system.mem_ctrl.bytesPerActivate::768-895          207      0.57%     96.67% # Bytes accessed per row activation
system.mem_ctrl.bytesPerActivate::896-1023          163      0.45%     97.12% # Bytes accessed per row activation
system.mem_ctrl.bytesPerActivate::1024-1151         1042      2.88%    100.00% # Bytes accessed per row activation
system.mem_ctrl.bytesPerActivate::total         36145                       # Bytes accessed per row activation
system.mem_ctrl.rdPerTurnAround::samples         1600                       # Reads before turning the bus around for writes
system.mem_ctrl.rdPerTurnAround::mean       42.819375                       # Reads before turning the bus around for writes
system.mem_ctrl.rdPerTurnAround::gmean      31.457583                       # Reads before turning the bus around for writes
system.mem_ctrl.rdPerTurnAround::stdev      85.708294                       # Reads before turning the bus around for writes
system.mem_ctrl.rdPerTurnAround::0-127           1529     95.56%     95.56% # Reads before turning the bus around for writes
system.mem_ctrl.rdPerTurnAround::128-255           55      3.44%     99.00% # Reads before turning the bus around for writes
system.mem_ctrl.rdPerTurnAround::256-383            8      0.50%     99.50% # Reads before turning the bus around for writes
system.mem_ctrl.rdPerTurnAround::384-511            3      0.19%     99.69% # Reads before turning the bus around for writes
system.mem_ctrl.rdPerTurnAround::512-639            3      0.19%     99.87% # Reads before turning the bus around for writes
system.mem_ctrl.rdPerTurnAround::1920-2047            1      0.06%     99.94% # Reads before turning the bus around for writes
system.mem_ctrl.rdPerTurnAround::2048-2175            1      0.06%    100.00% # Reads before turning the bus around for writes
system.mem_ctrl.rdPerTurnAround::total           1600                       # Reads before turning the bus around for writes
system.mem_ctrl.wrPerTurnAround::samples         1600                       # Writes before turning the bus around for reads
system.mem_ctrl.wrPerTurnAround::mean       17.540000                       # Writes before turning the bus around for reads
system.mem_ctrl.wrPerTurnAround::gmean      17.516257                       # Writes before turning the bus around for reads
system.mem_ctrl.wrPerTurnAround::stdev       0.896606                       # Writes before turning the bus around for reads
system.mem_ctrl.wrPerTurnAround::16               391     24.44%     24.44% # Writes before turning the bus around for reads
system.mem_ctrl.wrPerTurnAround::17                 7      0.44%     24.88% # Writes before turning the bus around for reads
system.mem_ctrl.wrPerTurnAround::18              1149     71.81%     96.69% # Writes before turning the bus around for reads
system.mem_ctrl.wrPerTurnAround::19                53      3.31%    100.00% # Writes before turning the bus around for reads
system.mem_ctrl.wrPerTurnAround::total           1600                       # Writes before turning the bus around for reads
system.mem_ctrl.totQLat                    1434876750                       # Total ticks spent queuing
system.mem_ctrl.totMemAccLat               2720001750                       # Total ticks spent from burst creation until serviced by the DRAM
system.mem_ctrl.totBusLat                   342700000                       # Total ticks spent in databus transfers
system.mem_ctrl.avgQLat                      20934.88                       # Average queueing delay per DRAM burst
system.mem_ctrl.avgBusLat                     5000.00                       # Average bus latency per DRAM burst
system.mem_ctrl.avgMemAccLat                 39684.88                       # Average memory access latency per DRAM burst
system.mem_ctrl.avgRdBW                         88.91                       # Average DRAM read bandwidth in MiByte/s
system.mem_ctrl.avgWrBW                         36.40                       # Average achieved write bandwidth in MiByte/s
system.mem_ctrl.avgRdBWSys                      89.29                       # Average system read bandwidth in MiByte/s
system.mem_ctrl.avgWrBWSys                      36.44                       # Average system write bandwidth in MiByte/s
system.mem_ctrl.peakBW                       12800.00                       # Theoretical peak bandwidth in MiByte/s
system.mem_ctrl.busUtil                          0.98                       # Data bus utilization in percentage
system.mem_ctrl.busUtilRead                      0.69                       # Data bus utilization in percentage for reads
system.mem_ctrl.busUtilWrite                     0.28                       # Data bus utilization in percentage for writes
system.mem_ctrl.avgRdQLen                        1.00                       # Average read queue length when enqueuing
system.mem_ctrl.avgWrQLen                       24.57                       # Average write queue length when enqueuing
system.mem_ctrl.readRowHits                     37010                       # Number of row buffer hits during reads
system.mem_ctrl.writeRowHits                    23445                       # Number of row buffer hits during writes
system.mem_ctrl.readRowHitRate                  54.00                       # Row buffer hit rate for reads
system.mem_ctrl.writeRowHitRate                 83.47                       # Row buffer hit rate for writes
system.mem_ctrl.avgGap                      509047.78                       # Average gap between requests
system.mem_ctrl.pageHitRate                     62.56                       # Row buffer hit rate, read and write combined
system.mem_ctrl_0.actEnergy                 123879000                       # Energy for activate commands per rank (pJ)
system.mem_ctrl_0.preEnergy                  65828070                       # Energy for precharge commands per rank (pJ)
system.mem_ctrl_0.readEnergy                230200740                       # Energy for read commands per rank (pJ)
system.mem_ctrl_0.writeEnergy                71299980                       # Energy for write commands per rank (pJ)
system.mem_ctrl_0.refreshEnergy          3376217520.000001                       # Energy for refresh commands per rank (pJ)
system.mem_ctrl_0.actBackEnergy            1843433010                       # Energy for active background per rank (pJ)
system.mem_ctrl_0.preBackEnergy             109596960                       # Energy for precharge background per rank (pJ)
system.mem_ctrl_0.actPowerDownEnergy      12944021700                       # Energy for active power-down per rank (pJ)
system.mem_ctrl_0.prePowerDownEnergy       3161632320                       # Energy for precharge power-down per rank (pJ)
system.mem_ctrl_0.selfRefreshEnergy        2153556750                       # Energy for self refresh per rank (pJ)
system.mem_ctrl_0.totalEnergy             24080515170                       # Total energy per rank (pJ)
system.mem_ctrl_0.averagePower             488.061970                       # Core power per rank (mW)
system.mem_ctrl_0.totalIdleTime           45009708750                       # Total Idle time Per DRAM Rank
system.mem_ctrl_0.memoryStateTime::IDLE     101292500                       # Time in different power states
system.mem_ctrl_0.memoryStateTime::REF     1429740000                       # Time in different power states
system.mem_ctrl_0.memoryStateTime::SREF    8389701000                       # Time in different power states
system.mem_ctrl_0.memoryStateTime::PRE_PDN   8233930250                       # Time in different power states
system.mem_ctrl_0.memoryStateTime::ACT     2798253500                       # Time in different power states
system.mem_ctrl_0.memoryStateTime::ACT_PDN  28386134750                       # Time in different power states
system.mem_ctrl_1.actEnergy                 134224860                       # Energy for activate commands per rank (pJ)
system.mem_ctrl_1.preEnergy                  71342205                       # Energy for precharge commands per rank (pJ)
system.mem_ctrl_1.readEnergy                259174860                       # Energy for read commands per rank (pJ)
system.mem_ctrl_1.writeEnergy                75194100                       # Energy for write commands per rank (pJ)
system.mem_ctrl_1.refreshEnergy          3402032400.000001                       # Energy for refresh commands per rank (pJ)
system.mem_ctrl_1.actBackEnergy            1824620160                       # Energy for active background per rank (pJ)
system.mem_ctrl_1.preBackEnergy             107185920                       # Energy for precharge background per rank (pJ)
system.mem_ctrl_1.actPowerDownEnergy      13786013730                       # Energy for active power-down per rank (pJ)
system.mem_ctrl_1.prePowerDownEnergy       2775184800                       # Energy for precharge power-down per rank (pJ)
system.mem_ctrl_1.selfRefreshEnergy        1927373130                       # Energy for self refresh per rank (pJ)
system.mem_ctrl_1.totalEnergy             24362950725                       # Total energy per rank (pJ)
system.mem_ctrl_1.averagePower             493.784500                       # Core power per rank (mW)
system.mem_ctrl_1.totalIdleTime           45058302250                       # Total Idle time Per DRAM Rank
system.mem_ctrl_1.memoryStateTime::IDLE      88451250                       # Time in different power states
system.mem_ctrl_1.memoryStateTime::REF     1440061250                       # Time in different power states
system.mem_ctrl_1.memoryStateTime::SREF    7597878000                       # Time in different power states
system.mem_ctrl_1.memoryStateTime::PRE_PDN   7227476750                       # Time in different power states
system.mem_ctrl_1.memoryStateTime::ACT     2752237250                       # Time in different power states
system.mem_ctrl_1.memoryStateTime::ACT_PDN  30232947500                       # Time in different power states
system.pwrStateResidencyTicks::UNDEFINED  49339052000                       # Cumulative time (in ticks) in various power states
system.cpu.dtb.walker.pwrStateResidencyTicks::UNDEFINED  49339052000                       # Cumulative time (in ticks) in various power states
system.cpu.apic_clk_domain.clock                16000                       # Clock period in ticks
system.cpu.interrupts.pwrStateResidencyTicks::UNDEFINED  49339052000                       # Cumulative time (in ticks) in various power states
system.cpu.itb.walker.pwrStateResidencyTicks::UNDEFINED  49339052000                       # Cumulative time (in ticks) in various power states
system.cpu.workload.numSyscalls                    74                       # Number of system calls
system.cpu.pwrStateResidencyTicks::ON     49339052000                       # Cumulative time (in ticks) in various power states
system.cpu.numCycles                         49339052                       # number of cpu cycles simulated
system.cpu.numWorkItemsStarted                      0                       # number of work items this cpu started
system.cpu.numWorkItemsCompleted                    0                       # number of work items this cpu completed
system.cpu.committedInsts                    13372438                       # Number of instructions committed
system.cpu.committedOps                      25661278                       # Number of ops (including micro ops) committed
system.cpu.num_int_alu_accesses              25548638                       # Number of integer alu accesses
system.cpu.num_fp_alu_accesses                  55171                       # Number of float alu accesses
system.cpu.num_func_calls                       89914                       # number of times a function call or return occured
system.cpu.num_conditional_control_insts      3007948                       # number of instructions that are conditional controls
system.cpu.num_int_insts                     25548638                       # number of integer instructions
system.cpu.num_fp_insts                         55171                       # number of float instructions
system.cpu.num_int_register_reads            47496634                       # number of times the integer registers were read
system.cpu.num_int_register_writes           21292101                       # number of times the integer registers were written
system.cpu.num_fp_register_reads                88473                       # number of times the floating registers were read
system.cpu.num_fp_register_writes               45428                       # number of times the floating registers were written
system.cpu.num_cc_register_reads             18100963                       # number of times the CC registers were read
system.cpu.num_cc_register_writes            11117107                       # number of times the CC registers were written
system.cpu.num_mem_refs                       3594272                       # number of memory refs
system.cpu.num_load_insts                     2527713                       # Number of load instructions
system.cpu.num_store_insts                    1066559                       # Number of store instructions
system.cpu.num_idle_cycles                          0                       # Number of idle cycles
system.cpu.num_busy_cycles                   49339052                       # Number of busy cycles
system.cpu.not_idle_fraction                        1                       # Percentage of non-idle cycles
system.cpu.idle_fraction                            0                       # Percentage of idle cycles
system.cpu.Branches                           3384690                       # Number of branches fetched
system.cpu.op_class::No_OpClass                 60750      0.24%      0.24% # Class of executed instruction
system.cpu.op_class::IntAlu                  21810379     84.99%     85.23% # Class of executed instruction
system.cpu.op_class::IntMult                   120800      0.47%     85.70% # Class of executed instruction
system.cpu.op_class::IntDiv                     38910      0.15%     85.85% # Class of executed instruction
system.cpu.op_class::FloatAdd                   36167      0.14%     85.99% # Class of executed instruction
system.cpu.op_class::FloatCmp                       0      0.00%     85.99% # Class of executed instruction
system.cpu.op_class::FloatCvt                       0      0.00%     85.99% # Class of executed instruction
system.cpu.op_class::FloatMult                      0      0.00%     85.99% # Class of executed instruction
system.cpu.op_class::FloatMultAcc                   0      0.00%     85.99% # Class of executed instruction
system.cpu.op_class::FloatDiv                       0      0.00%     85.99% # Class of executed instruction
system.cpu.op_class::FloatMisc                      0      0.00%     85.99% # Class of executed instruction
system.cpu.op_class::FloatSqrt                      0      0.00%     85.99% # Class of executed instruction
system.cpu.op_class::SimdAdd                        0      0.00%     85.99% # Class of executed instruction
system.cpu.op_class::SimdAddAcc                     0      0.00%     85.99% # Class of executed instruction
system.cpu.op_class::SimdAlu                        0      0.00%     85.99% # Class of executed instruction
system.cpu.op_class::SimdCmp                        0      0.00%     85.99% # Class of executed instruction
system.cpu.op_class::SimdCvt                        0      0.00%     85.99% # Class of executed instruction
system.cpu.op_class::SimdMisc                       0      0.00%     85.99% # Class of executed instruction
system.cpu.op_class::SimdMult                       0      0.00%     85.99% # Class of executed instruction
system.cpu.op_class::SimdMultAcc                    0      0.00%     85.99% # Class of executed instruction
system.cpu.op_class::SimdShift                      0      0.00%     85.99% # Class of executed instruction
system.cpu.op_class::SimdShiftAcc                   0      0.00%     85.99% # Class of executed instruction
system.cpu.op_class::SimdSqrt                       0      0.00%     85.99% # Class of executed instruction
system.cpu.op_class::SimdFloatAdd                   0      0.00%     85.99% # Class of executed instruction
system.cpu.op_class::SimdFloatAlu                   0      0.00%     85.99% # Class of executed instruction
system.cpu.op_class::SimdFloatCmp                   0      0.00%     85.99% # Class of executed instruction
system.cpu.op_class::SimdFloatCvt                   0      0.00%     85.99% # Class of executed instruction
system.cpu.op_class::SimdFloatDiv                   0      0.00%     85.99% # Class of executed instruction
system.cpu.op_class::SimdFloatMisc                  0      0.00%     85.99% # Class of executed instruction
system.cpu.op_class::SimdFloatMult                  0      0.00%     85.99% # Class of executed instruction
system.cpu.op_class::SimdFloatMultAcc               0      0.00%     85.99% # Class of executed instruction
system.cpu.op_class::SimdFloatSqrt                  0      0.00%     85.99% # Class of executed instruction
system.cpu.op_class::MemRead                  2511963      9.79%     95.78% # Class of executed instruction
system.cpu.op_class::MemWrite                 1063685      4.15%     99.93% # Class of executed instruction
system.cpu.op_class::FloatMemRead               15750      0.06%     99.99% # Class of executed instruction
system.cpu.op_class::FloatMemWrite               2874      0.01%    100.00% # Class of executed instruction
system.cpu.op_class::IprAccess                      0      0.00%    100.00% # Class of executed instruction
system.cpu.op_class::InstPrefetch                   0      0.00%    100.00% # Class of executed instruction
system.cpu.op_class::total                   25661278                       # Class of executed instruction
system.cpu.dcache.tags.pwrStateResidencyTicks::UNDEFINED  49339052000                       # Cumulative time (in ticks) in various power states
system.cpu.dcache.tags.replacements             80142                       # number of replacements
system.cpu.dcache.tags.tagsinuse          1019.084141                       # Cycle average of tags in use
system.cpu.dcache.tags.total_refs             3513152                       # Total number of references to valid blocks.
system.cpu.dcache.tags.sampled_refs             81166                       # Sample count of references to valid blocks.
system.cpu.dcache.tags.avg_refs             43.283542                       # Average number of references to valid blocks.
system.cpu.dcache.tags.warmup_cycle         802554000                       # Cycle when the warmup percentage was hit.
system.cpu.dcache.tags.occ_blocks::cpu.data  1019.084141                       # Average occupied blocks per requestor
system.cpu.dcache.tags.occ_percent::cpu.data     0.995199                       # Average percentage of cache occupancy
system.cpu.dcache.tags.occ_percent::total     0.995199                       # Average percentage of cache occupancy
system.cpu.dcache.tags.occ_task_id_blocks::1024         1024                       # Occupied blocks per task id
system.cpu.dcache.tags.age_task_id_blocks_1024::0           28                       # Occupied blocks per task id
system.cpu.dcache.tags.age_task_id_blocks_1024::1          364                       # Occupied blocks per task id
system.cpu.dcache.tags.age_task_id_blocks_1024::2          610                       # Occupied blocks per task id
system.cpu.dcache.tags.age_task_id_blocks_1024::3           22                       # Occupied blocks per task id
system.cpu.dcache.tags.occ_task_id_percent::1024            1                       # Percentage of cache occupancy per task id
system.cpu.dcache.tags.tag_accesses           7269802                       # Number of tag accesses
system.cpu.dcache.tags.data_accesses          7269802                       # Number of data accesses
system.cpu.dcache.pwrStateResidencyTicks::UNDEFINED  49339052000                       # Cumulative time (in ticks) in various power states
system.cpu.dcache.ReadReq_hits::cpu.data      2470343                       # number of ReadReq hits
system.cpu.dcache.ReadReq_hits::total         2470343                       # number of ReadReq hits
system.cpu.dcache.WriteReq_hits::cpu.data      1042809                       # number of WriteReq hits
system.cpu.dcache.WriteReq_hits::total        1042809                       # number of WriteReq hits
system.cpu.dcache.demand_hits::cpu.data       3513152                       # number of demand (read+write) hits
system.cpu.dcache.demand_hits::total          3513152                       # number of demand (read+write) hits
system.cpu.dcache.overall_hits::cpu.data      3513152                       # number of overall hits
system.cpu.dcache.overall_hits::total         3513152                       # number of overall hits
system.cpu.dcache.ReadReq_misses::cpu.data        57411                       # number of ReadReq misses
system.cpu.dcache.ReadReq_misses::total         57411                       # number of ReadReq misses
system.cpu.dcache.WriteReq_misses::cpu.data        23755                       # number of WriteReq misses
system.cpu.dcache.WriteReq_misses::total        23755                       # number of WriteReq misses
system.cpu.dcache.demand_misses::cpu.data        81166                       # number of demand (read+write) misses
system.cpu.dcache.demand_misses::total          81166                       # number of demand (read+write) misses
system.cpu.dcache.overall_misses::cpu.data        81166                       # number of overall misses
system.cpu.dcache.overall_misses::total         81166                       # number of overall misses
system.cpu.dcache.ReadReq_miss_latency::cpu.data   5551004000                       # number of ReadReq miss cycles
system.cpu.dcache.ReadReq_miss_latency::total   5551004000                       # number of ReadReq miss cycles
system.cpu.dcache.WriteReq_miss_latency::cpu.data   2560936000                       # number of WriteReq miss cycles
system.cpu.dcache.WriteReq_miss_latency::total   2560936000                       # number of WriteReq miss cycles
system.cpu.dcache.demand_miss_latency::cpu.data   8111940000                       # number of demand (read+write) miss cycles
system.cpu.dcache.demand_miss_latency::total   8111940000                       # number of demand (read+write) miss cycles
system.cpu.dcache.overall_miss_latency::cpu.data   8111940000                       # number of overall miss cycles
system.cpu.dcache.overall_miss_latency::total   8111940000                       # number of overall miss cycles
system.cpu.dcache.ReadReq_accesses::cpu.data      2527754                       # number of ReadReq accesses(hits+misses)
system.cpu.dcache.ReadReq_accesses::total      2527754                       # number of ReadReq accesses(hits+misses)
system.cpu.dcache.WriteReq_accesses::cpu.data      1066564                       # number of WriteReq accesses(hits+misses)
system.cpu.dcache.WriteReq_accesses::total      1066564                       # number of WriteReq accesses(hits+misses)
system.cpu.dcache.demand_accesses::cpu.data      3594318                       # number of demand (read+write) accesses
system.cpu.dcache.demand_accesses::total      3594318                       # number of demand (read+write) accesses
system.cpu.dcache.overall_accesses::cpu.data      3594318                       # number of overall (read+write) accesses
system.cpu.dcache.overall_accesses::total      3594318                       # number of overall (read+write) accesses
system.cpu.dcache.ReadReq_miss_rate::cpu.data     0.022712                       # miss rate for ReadReq accesses
system.cpu.dcache.ReadReq_miss_rate::total     0.022712                       # miss rate for ReadReq accesses
system.cpu.dcache.WriteReq_miss_rate::cpu.data     0.022272                       # miss rate for WriteReq accesses
system.cpu.dcache.WriteReq_miss_rate::total     0.022272                       # miss rate for WriteReq accesses
system.cpu.dcache.demand_miss_rate::cpu.data     0.022582                       # miss rate for demand accesses
system.cpu.dcache.demand_miss_rate::total     0.022582                       # miss rate for demand accesses
system.cpu.dcache.overall_miss_rate::cpu.data     0.022582                       # miss rate for overall accesses
system.cpu.dcache.overall_miss_rate::total     0.022582                       # miss rate for overall accesses
system.cpu.dcache.ReadReq_avg_miss_latency::cpu.data 96688.857536                       # average ReadReq miss latency
system.cpu.dcache.ReadReq_avg_miss_latency::total 96688.857536                       # average ReadReq miss latency
system.cpu.dcache.WriteReq_avg_miss_latency::cpu.data 107806.188171                       # average WriteReq miss latency
system.cpu.dcache.WriteReq_avg_miss_latency::total 107806.188171                       # average WriteReq miss latency
system.cpu.dcache.demand_avg_miss_latency::cpu.data 99942.586797                       # average overall miss latency
system.cpu.dcache.demand_avg_miss_latency::total 99942.586797                       # average overall miss latency
system.cpu.dcache.overall_avg_miss_latency::cpu.data 99942.586797                       # average overall miss latency
system.cpu.dcache.overall_avg_miss_latency::total 99942.586797                       # average overall miss latency
system.cpu.dcache.blocked_cycles::no_mshrs            0                       # number of cycles access was blocked
system.cpu.dcache.blocked_cycles::no_targets            0                       # number of cycles access was blocked
system.cpu.dcache.blocked::no_mshrs                 0                       # number of cycles access was blocked
system.cpu.dcache.blocked::no_targets               0                       # number of cycles access was blocked
system.cpu.dcache.avg_blocked_cycles::no_mshrs          nan                       # average number of cycles each access was blocked
system.cpu.dcache.avg_blocked_cycles::no_targets          nan                       # average number of cycles each access was blocked
system.cpu.dcache.writebacks::writebacks        38390                       # number of writebacks
system.cpu.dcache.writebacks::total             38390                       # number of writebacks
system.cpu.dcache.ReadReq_mshr_misses::cpu.data        57411                       # number of ReadReq MSHR misses
system.cpu.dcache.ReadReq_mshr_misses::total        57411                       # number of ReadReq MSHR misses
system.cpu.dcache.WriteReq_mshr_misses::cpu.data        23755                       # number of WriteReq MSHR misses
system.cpu.dcache.WriteReq_mshr_misses::total        23755                       # number of WriteReq MSHR misses
system.cpu.dcache.demand_mshr_misses::cpu.data        81166                       # number of demand (read+write) MSHR misses
system.cpu.dcache.demand_mshr_misses::total        81166                       # number of demand (read+write) MSHR misses
system.cpu.dcache.overall_mshr_misses::cpu.data        81166                       # number of overall MSHR misses
system.cpu.dcache.overall_mshr_misses::total        81166                       # number of overall MSHR misses
system.cpu.dcache.ReadReq_mshr_miss_latency::cpu.data   5436182000                       # number of ReadReq MSHR miss cycles
system.cpu.dcache.ReadReq_mshr_miss_latency::total   5436182000                       # number of ReadReq MSHR miss cycles
system.cpu.dcache.WriteReq_mshr_miss_latency::cpu.data   2513426000                       # number of WriteReq MSHR miss cycles
system.cpu.dcache.WriteReq_mshr_miss_latency::total   2513426000                       # number of WriteReq MSHR miss cycles
system.cpu.dcache.demand_mshr_miss_latency::cpu.data   7949608000                       # number of demand (read+write) MSHR miss cycles
system.cpu.dcache.demand_mshr_miss_latency::total   7949608000                       # number of demand (read+write) MSHR miss cycles
system.cpu.dcache.overall_mshr_miss_latency::cpu.data   7949608000                       # number of overall MSHR miss cycles
system.cpu.dcache.overall_mshr_miss_latency::total   7949608000                       # number of overall MSHR miss cycles
system.cpu.dcache.ReadReq_mshr_miss_rate::cpu.data     0.022712                       # mshr miss rate for ReadReq accesses
system.cpu.dcache.ReadReq_mshr_miss_rate::total     0.022712                       # mshr miss rate for ReadReq accesses
system.cpu.dcache.WriteReq_mshr_miss_rate::cpu.data     0.022272                       # mshr miss rate for WriteReq accesses
system.cpu.dcache.WriteReq_mshr_miss_rate::total     0.022272                       # mshr miss rate for WriteReq accesses
system.cpu.dcache.demand_mshr_miss_rate::cpu.data     0.022582                       # mshr miss rate for demand accesses
system.cpu.dcache.demand_mshr_miss_rate::total     0.022582                       # mshr miss rate for demand accesses
system.cpu.dcache.overall_mshr_miss_rate::cpu.data     0.022582                       # mshr miss rate for overall accesses
system.cpu.dcache.overall_mshr_miss_rate::total     0.022582                       # mshr miss rate for overall accesses
system.cpu.dcache.ReadReq_avg_mshr_miss_latency::cpu.data 94688.857536                       # average ReadReq mshr miss latency
system.cpu.dcache.ReadReq_avg_mshr_miss_latency::total 94688.857536                       # average ReadReq mshr miss latency
system.cpu.dcache.WriteReq_avg_mshr_miss_latency::cpu.data 105806.188171                       # average WriteReq mshr miss latency
system.cpu.dcache.WriteReq_avg_mshr_miss_latency::total 105806.188171                       # average WriteReq mshr miss latency
system.cpu.dcache.demand_avg_mshr_miss_latency::cpu.data 97942.586797                       # average overall mshr miss latency
system.cpu.dcache.demand_avg_mshr_miss_latency::total 97942.586797                       # average overall mshr miss latency
system.cpu.dcache.overall_avg_mshr_miss_latency::cpu.data 97942.586797                       # average overall mshr miss latency
system.cpu.dcache.overall_avg_mshr_miss_latency::total 97942.586797                       # average overall mshr miss latency
system.cpu.icache.tags.pwrStateResidencyTicks::UNDEFINED  49339052000                       # Cumulative time (in ticks) in various power states
system.cpu.icache.tags.replacements              1148                       # number of replacements
system.cpu.icache.tags.tagsinuse           882.238102                       # Cycle average of tags in use
system.cpu.icache.tags.total_refs            16980774                       # Total number of references to valid blocks.
system.cpu.icache.tags.sampled_refs              2128                       # Sample count of references to valid blocks.
system.cpu.icache.tags.avg_refs           7979.687030                       # Average number of references to valid blocks.
system.cpu.icache.tags.warmup_cycle                 0                       # Cycle when the warmup percentage was hit.
system.cpu.icache.tags.occ_blocks::cpu.inst   882.238102                       # Average occupied blocks per requestor
system.cpu.icache.tags.occ_percent::cpu.inst     0.861561                       # Average percentage of cache occupancy
system.cpu.icache.tags.occ_percent::total     0.861561                       # Average percentage of cache occupancy
system.cpu.icache.tags.occ_task_id_blocks::1024          980                       # Occupied blocks per task id
system.cpu.icache.tags.age_task_id_blocks_1024::0           39                       # Occupied blocks per task id
system.cpu.icache.tags.age_task_id_blocks_1024::1           72                       # Occupied blocks per task id
system.cpu.icache.tags.age_task_id_blocks_1024::2          248                       # Occupied blocks per task id
system.cpu.icache.tags.age_task_id_blocks_1024::3           29                       # Occupied blocks per task id
system.cpu.icache.tags.age_task_id_blocks_1024::4          592                       # Occupied blocks per task id
system.cpu.icache.tags.occ_task_id_percent::1024     0.957031                       # Percentage of cache occupancy per task id
system.cpu.icache.tags.tag_accesses          33967932                       # Number of tag accesses
system.cpu.icache.tags.data_accesses         33967932                       # Number of data accesses
system.cpu.icache.pwrStateResidencyTicks::UNDEFINED  49339052000                       # Cumulative time (in ticks) in various power states
system.cpu.icache.ReadReq_hits::cpu.inst     16980774                       # number of ReadReq hits
system.cpu.icache.ReadReq_hits::total        16980774                       # number of ReadReq hits
system.cpu.icache.demand_hits::cpu.inst      16980774                       # number of demand (read+write) hits
system.cpu.icache.demand_hits::total         16980774                       # number of demand (read+write) hits
system.cpu.icache.overall_hits::cpu.inst     16980774                       # number of overall hits
system.cpu.icache.overall_hits::total        16980774                       # number of overall hits
system.cpu.icache.ReadReq_misses::cpu.inst         2128                       # number of ReadReq misses
system.cpu.icache.ReadReq_misses::total          2128                       # number of ReadReq misses
system.cpu.icache.demand_misses::cpu.inst         2128                       # number of demand (read+write) misses
system.cpu.icache.demand_misses::total           2128                       # number of demand (read+write) misses
system.cpu.icache.overall_misses::cpu.inst         2128                       # number of overall misses
system.cpu.icache.overall_misses::total          2128                       # number of overall misses
system.cpu.icache.ReadReq_miss_latency::cpu.inst    239545000                       # number of ReadReq miss cycles
system.cpu.icache.ReadReq_miss_latency::total    239545000                       # number of ReadReq miss cycles
system.cpu.icache.demand_miss_latency::cpu.inst    239545000                       # number of demand (read+write) miss cycles
system.cpu.icache.demand_miss_latency::total    239545000                       # number of demand (read+write) miss cycles
system.cpu.icache.overall_miss_latency::cpu.inst    239545000                       # number of overall miss cycles
system.cpu.icache.overall_miss_latency::total    239545000                       # number of overall miss cycles
system.cpu.icache.ReadReq_accesses::cpu.inst     16982902                       # number of ReadReq accesses(hits+misses)
system.cpu.icache.ReadReq_accesses::total     16982902                       # number of ReadReq accesses(hits+misses)
system.cpu.icache.demand_accesses::cpu.inst     16982902                       # number of demand (read+write) accesses
system.cpu.icache.demand_accesses::total     16982902                       # number of demand (read+write) accesses
system.cpu.icache.overall_accesses::cpu.inst     16982902                       # number of overall (read+write) accesses
system.cpu.icache.overall_accesses::total     16982902                       # number of overall (read+write) accesses
system.cpu.icache.ReadReq_miss_rate::cpu.inst     0.000125                       # miss rate for ReadReq accesses
system.cpu.icache.ReadReq_miss_rate::total     0.000125                       # miss rate for ReadReq accesses
system.cpu.icache.demand_miss_rate::cpu.inst     0.000125                       # miss rate for demand accesses
system.cpu.icache.demand_miss_rate::total     0.000125                       # miss rate for demand accesses
system.cpu.icache.overall_miss_rate::cpu.inst     0.000125                       # miss rate for overall accesses
system.cpu.icache.overall_miss_rate::total     0.000125                       # miss rate for overall accesses
system.cpu.icache.ReadReq_avg_miss_latency::cpu.inst 112568.139098                       # average ReadReq miss latency
system.cpu.icache.ReadReq_avg_miss_latency::total 112568.139098                       # average ReadReq miss latency
system.cpu.icache.demand_avg_miss_latency::cpu.inst 112568.139098                       # average overall miss latency
system.cpu.icache.demand_avg_miss_latency::total 112568.139098                       # average overall miss latency
system.cpu.icache.overall_avg_miss_latency::cpu.inst 112568.139098                       # average overall miss latency
system.cpu.icache.overall_avg_miss_latency::total 112568.139098                       # average overall miss latency
system.cpu.icache.blocked_cycles::no_mshrs            0                       # number of cycles access was blocked
system.cpu.icache.blocked_cycles::no_targets            0                       # number of cycles access was blocked
system.cpu.icache.blocked::no_mshrs                 0                       # number of cycles access was blocked
system.cpu.icache.blocked::no_targets               0                       # number of cycles access was blocked
system.cpu.icache.avg_blocked_cycles::no_mshrs          nan                       # average number of cycles each access was blocked
system.cpu.icache.avg_blocked_cycles::no_targets          nan                       # average number of cycles each access was blocked
system.cpu.icache.ReadReq_mshr_misses::cpu.inst         2128                       # number of ReadReq MSHR misses
system.cpu.icache.ReadReq_mshr_misses::total         2128                       # number of ReadReq MSHR misses
system.cpu.icache.demand_mshr_misses::cpu.inst         2128                       # number of demand (read+write) MSHR misses
system.cpu.icache.demand_mshr_misses::total         2128                       # number of demand (read+write) MSHR misses
system.cpu.icache.overall_mshr_misses::cpu.inst         2128                       # number of overall MSHR misses
system.cpu.icache.overall_mshr_misses::total         2128                       # number of overall MSHR misses
system.cpu.icache.ReadReq_mshr_miss_latency::cpu.inst    235289000                       # number of ReadReq MSHR miss cycles
system.cpu.icache.ReadReq_mshr_miss_latency::total    235289000                       # number of ReadReq MSHR miss cycles
system.cpu.icache.demand_mshr_miss_latency::cpu.inst    235289000                       # number of demand (read+write) MSHR miss cycles
system.cpu.icache.demand_mshr_miss_latency::total    235289000                       # number of demand (read+write) MSHR miss cycles
system.cpu.icache.overall_mshr_miss_latency::cpu.inst    235289000                       # number of overall MSHR miss cycles
system.cpu.icache.overall_mshr_miss_latency::total    235289000                       # number of overall MSHR miss cycles
system.cpu.icache.ReadReq_mshr_miss_rate::cpu.inst     0.000125                       # mshr miss rate for ReadReq accesses
system.cpu.icache.ReadReq_mshr_miss_rate::total     0.000125                       # mshr miss rate for ReadReq accesses
system.cpu.icache.demand_mshr_miss_rate::cpu.inst     0.000125                       # mshr miss rate for demand accesses
system.cpu.icache.demand_mshr_miss_rate::total     0.000125                       # mshr miss rate for demand accesses
system.cpu.icache.overall_mshr_miss_rate::cpu.inst     0.000125                       # mshr miss rate for overall accesses
system.cpu.icache.overall_mshr_miss_rate::total     0.000125                       # mshr miss rate for overall accesses
system.cpu.icache.ReadReq_avg_mshr_miss_latency::cpu.inst 110568.139098                       # average ReadReq mshr miss latency
system.cpu.icache.ReadReq_avg_mshr_miss_latency::total 110568.139098                       # average ReadReq mshr miss latency
system.cpu.icache.demand_avg_mshr_miss_latency::cpu.inst 110568.139098                       # average overall mshr miss latency
system.cpu.icache.demand_avg_mshr_miss_latency::total 110568.139098                       # average overall mshr miss latency
system.cpu.icache.overall_avg_mshr_miss_latency::cpu.inst 110568.139098                       # average overall mshr miss latency
system.cpu.icache.overall_avg_mshr_miss_latency::total 110568.139098                       # average overall mshr miss latency
system.l2bus.snoop_filter.tot_requests         164584                       # Total number of requests made to the snoop filter.
system.l2bus.snoop_filter.hit_single_requests        81290                       # Number of requests hitting in the snoop filter with a single holder of the requested data.
system.l2bus.snoop_filter.hit_multi_requests            2                       # Number of requests hitting in the snoop filter with multiple (>1) holders of the requested data.
system.l2bus.snoop_filter.tot_snoops            25028                       # Total number of snoops made to the snoop filter.
system.l2bus.snoop_filter.hit_single_snoops        25028                       # Number of snoops hitting in the snoop filter with a single holder of the requested data.
system.l2bus.snoop_filter.hit_multi_snoops            0                       # Number of snoops hitting in the snoop filter with multiple (>1) holders of the requested data.
system.l2bus.pwrStateResidencyTicks::UNDEFINED  49339052000                       # Cumulative time (in ticks) in various power states
system.l2bus.trans_dist::ReadResp               59539                       # Transaction distribution
system.l2bus.trans_dist::WritebackDirty         66479                       # Transaction distribution
system.l2bus.trans_dist::CleanEvict             93076                       # Transaction distribution
system.l2bus.trans_dist::ReadExReq              23755                       # Transaction distribution
system.l2bus.trans_dist::ReadExResp             23755                       # Transaction distribution
system.l2bus.trans_dist::ReadSharedReq          59539                       # Transaction distribution
system.l2bus.pkt_count_system.cpu.icache.mem_side::system.l2cache.cpu_side         5404                       # Packet count per connected master and slave (bytes)
system.l2bus.pkt_count_system.cpu.dcache.mem_side::system.l2cache.cpu_side       242474                       # Packet count per connected master and slave (bytes)
system.l2bus.pkt_count::total                  247878                       # Packet count per connected master and slave (bytes)
system.l2bus.pkt_size_system.cpu.icache.mem_side::system.l2cache.cpu_side       136192                       # Cumulative packet size per connected master and slave (bytes)
system.l2bus.pkt_size_system.cpu.dcache.mem_side::system.l2cache.cpu_side      7651584                       # Cumulative packet size per connected master and slave (bytes)
system.l2bus.pkt_size::total                  7787776                       # Cumulative packet size per connected master and slave (bytes)
system.l2bus.snoops                             78265                       # Total snoops (count)
system.l2bus.snoopTraffic                     1797696                       # Total snoop traffic (bytes)
system.l2bus.snoop_fanout::samples             161559                       # Request fanout histogram
system.l2bus.snoop_fanout::mean              0.154928                       # Request fanout histogram
system.l2bus.snoop_fanout::stdev             0.361837                       # Request fanout histogram
system.l2bus.snoop_fanout::underflows               0      0.00%      0.00% # Request fanout histogram
system.l2bus.snoop_fanout::0                   136529     84.51%     84.51% # Request fanout histogram
system.l2bus.snoop_fanout::1                    25030     15.49%    100.00% # Request fanout histogram
system.l2bus.snoop_fanout::2                        0      0.00%    100.00% # Request fanout histogram
system.l2bus.snoop_fanout::overflows                0      0.00%    100.00% # Request fanout histogram
system.l2bus.snoop_fanout::min_value                0                       # Request fanout histogram
system.l2bus.snoop_fanout::max_value                1                       # Request fanout histogram
system.l2bus.snoop_fanout::total               161559                       # Request fanout histogram
system.l2bus.reqLayer0.occupancy            241364000                       # Layer occupancy (ticks)
system.l2bus.reqLayer0.utilization                0.5                       # Layer utilization (%)
system.l2bus.respLayer0.occupancy             6384000                       # Layer occupancy (ticks)
system.l2bus.respLayer0.utilization               0.0                       # Layer utilization (%)
system.l2bus.respLayer1.occupancy           243498000                       # Layer occupancy (ticks)
system.l2bus.respLayer1.utilization               0.5                       # Layer utilization (%)
system.l2cache.tags.pwrStateResidencyTicks::UNDEFINED  49339052000                       # Cumulative time (in ticks) in various power states
system.l2cache.tags.replacements                78265                       # number of replacements
system.l2cache.tags.tagsinuse             2037.278254                       # Cycle average of tags in use
system.l2cache.tags.total_refs                  71625                       # Total number of references to valid blocks.
system.l2cache.tags.sampled_refs                80313                       # Sample count of references to valid blocks.
system.l2cache.tags.avg_refs                 0.891823                       # Average number of references to valid blocks.
system.l2cache.tags.warmup_cycle           1316746000                       # Cycle when the warmup percentage was hit.
system.l2cache.tags.occ_blocks::writebacks   184.561972                       # Average occupied blocks per requestor
system.l2cache.tags.occ_blocks::cpu.inst    34.699043                       # Average occupied blocks per requestor
system.l2cache.tags.occ_blocks::cpu.data  1818.017240                       # Average occupied blocks per requestor
system.l2cache.tags.occ_percent::writebacks     0.090118                       # Average percentage of cache occupancy
system.l2cache.tags.occ_percent::cpu.inst     0.016943                       # Average percentage of cache occupancy
system.l2cache.tags.occ_percent::cpu.data     0.887704                       # Average percentage of cache occupancy
system.l2cache.tags.occ_percent::total       0.994765                       # Average percentage of cache occupancy
system.l2cache.tags.occ_task_id_blocks::1024         2048                       # Occupied blocks per task id
system.l2cache.tags.age_task_id_blocks_1024::0           75                       # Occupied blocks per task id
system.l2cache.tags.age_task_id_blocks_1024::1          351                       # Occupied blocks per task id
system.l2cache.tags.age_task_id_blocks_1024::2         1379                       # Occupied blocks per task id
system.l2cache.tags.age_task_id_blocks_1024::3          243                       # Occupied blocks per task id
system.l2cache.tags.occ_task_id_percent::1024            1                       # Percentage of cache occupancy per task id
system.l2cache.tags.tag_accesses              1396969                       # Number of tag accesses
system.l2cache.tags.data_accesses             1396969                       # Number of data accesses
system.l2cache.pwrStateResidencyTicks::UNDEFINED  49339052000                       # Cumulative time (in ticks) in various power states
system.l2cache.WritebackDirty_hits::writebacks        38390                       # number of WritebackDirty hits
system.l2cache.WritebackDirty_hits::total        38390                       # number of WritebackDirty hits
system.l2cache.ReadExReq_hits::cpu.data          2161                       # number of ReadExReq hits
system.l2cache.ReadExReq_hits::total             2161                       # number of ReadExReq hits
system.l2cache.ReadSharedReq_hits::cpu.inst           36                       # number of ReadSharedReq hits
system.l2cache.ReadSharedReq_hits::cpu.data        12262                       # number of ReadSharedReq hits
system.l2cache.ReadSharedReq_hits::total        12298                       # number of ReadSharedReq hits
system.l2cache.demand_hits::cpu.inst               36                       # number of demand (read+write) hits
system.l2cache.demand_hits::cpu.data            14423                       # number of demand (read+write) hits
system.l2cache.demand_hits::total               14459                       # number of demand (read+write) hits
system.l2cache.overall_hits::cpu.inst              36                       # number of overall hits
system.l2cache.overall_hits::cpu.data           14423                       # number of overall hits
system.l2cache.overall_hits::total              14459                       # number of overall hits
system.l2cache.ReadExReq_misses::cpu.data        21594                       # number of ReadExReq misses
system.l2cache.ReadExReq_misses::total          21594                       # number of ReadExReq misses
system.l2cache.ReadSharedReq_misses::cpu.inst         2092                       # number of ReadSharedReq misses
system.l2cache.ReadSharedReq_misses::cpu.data        45149                       # number of ReadSharedReq misses
system.l2cache.ReadSharedReq_misses::total        47241                       # number of ReadSharedReq misses
system.l2cache.demand_misses::cpu.inst           2092                       # number of demand (read+write) misses
system.l2cache.demand_misses::cpu.data          66743                       # number of demand (read+write) misses
system.l2cache.demand_misses::total             68835                       # number of demand (read+write) misses
system.l2cache.overall_misses::cpu.inst          2092                       # number of overall misses
system.l2cache.overall_misses::cpu.data         66743                       # number of overall misses
system.l2cache.overall_misses::total            68835                       # number of overall misses
system.l2cache.ReadExReq_miss_latency::cpu.data   2396780000                       # number of ReadExReq miss cycles
system.l2cache.ReadExReq_miss_latency::total   2396780000                       # number of ReadExReq miss cycles
system.l2cache.ReadSharedReq_miss_latency::cpu.inst    228141000                       # number of ReadSharedReq miss cycles
system.l2cache.ReadSharedReq_miss_latency::cpu.data   5006445000                       # number of ReadSharedReq miss cycles
system.l2cache.ReadSharedReq_miss_latency::total   5234586000                       # number of ReadSharedReq miss cycles
system.l2cache.demand_miss_latency::cpu.inst    228141000                       # number of demand (read+write) miss cycles
system.l2cache.demand_miss_latency::cpu.data   7403225000                       # number of demand (read+write) miss cycles
system.l2cache.demand_miss_latency::total   7631366000                       # number of demand (read+write) miss cycles
system.l2cache.overall_miss_latency::cpu.inst    228141000                       # number of overall miss cycles
system.l2cache.overall_miss_latency::cpu.data   7403225000                       # number of overall miss cycles
system.l2cache.overall_miss_latency::total   7631366000                       # number of overall miss cycles
system.l2cache.WritebackDirty_accesses::writebacks        38390                       # number of WritebackDirty accesses(hits+misses)
system.l2cache.WritebackDirty_accesses::total        38390                       # number of WritebackDirty accesses(hits+misses)
system.l2cache.ReadExReq_accesses::cpu.data        23755                       # number of ReadExReq accesses(hits+misses)
system.l2cache.ReadExReq_accesses::total        23755                       # number of ReadExReq accesses(hits+misses)
system.l2cache.ReadSharedReq_accesses::cpu.inst         2128                       # number of ReadSharedReq accesses(hits+misses)
system.l2cache.ReadSharedReq_accesses::cpu.data        57411                       # number of ReadSharedReq accesses(hits+misses)
system.l2cache.ReadSharedReq_accesses::total        59539                       # number of ReadSharedReq accesses(hits+misses)
system.l2cache.demand_accesses::cpu.inst         2128                       # number of demand (read+write) accesses
system.l2cache.demand_accesses::cpu.data        81166                       # number of demand (read+write) accesses
system.l2cache.demand_accesses::total           83294                       # number of demand (read+write) accesses
system.l2cache.overall_accesses::cpu.inst         2128                       # number of overall (read+write) accesses
system.l2cache.overall_accesses::cpu.data        81166                       # number of overall (read+write) accesses
system.l2cache.overall_accesses::total          83294                       # number of overall (read+write) accesses
system.l2cache.ReadExReq_miss_rate::cpu.data     0.909030                       # miss rate for ReadExReq accesses
system.l2cache.ReadExReq_miss_rate::total     0.909030                       # miss rate for ReadExReq accesses
system.l2cache.ReadSharedReq_miss_rate::cpu.inst     0.983083                       # miss rate for ReadSharedReq accesses
system.l2cache.ReadSharedReq_miss_rate::cpu.data     0.786417                       # miss rate for ReadSharedReq accesses
system.l2cache.ReadSharedReq_miss_rate::total     0.793446                       # miss rate for ReadSharedReq accesses
system.l2cache.demand_miss_rate::cpu.inst     0.983083                       # miss rate for demand accesses
system.l2cache.demand_miss_rate::cpu.data     0.822302                       # miss rate for demand accesses
system.l2cache.demand_miss_rate::total       0.826410                       # miss rate for demand accesses
system.l2cache.overall_miss_rate::cpu.inst     0.983083                       # miss rate for overall accesses
system.l2cache.overall_miss_rate::cpu.data     0.822302                       # miss rate for overall accesses
system.l2cache.overall_miss_rate::total      0.826410                       # miss rate for overall accesses
system.l2cache.ReadExReq_avg_miss_latency::cpu.data 110992.868389                       # average ReadExReq miss latency
system.l2cache.ReadExReq_avg_miss_latency::total 110992.868389                       # average ReadExReq miss latency
system.l2cache.ReadSharedReq_avg_miss_latency::cpu.inst 109054.015296                       # average ReadSharedReq miss latency
system.l2cache.ReadSharedReq_avg_miss_latency::cpu.data 110887.173581                       # average ReadSharedReq miss latency
system.l2cache.ReadSharedReq_avg_miss_latency::total 110805.994793                       # average ReadSharedReq miss latency
system.l2cache.demand_avg_miss_latency::cpu.inst 109054.015296                       # average overall miss latency
system.l2cache.demand_avg_miss_latency::cpu.data 110921.370031                       # average overall miss latency
system.l2cache.demand_avg_miss_latency::total 110864.618290                       # average overall miss latency
system.l2cache.overall_avg_miss_latency::cpu.inst 109054.015296                       # average overall miss latency
system.l2cache.overall_avg_miss_latency::cpu.data 110921.370031                       # average overall miss latency
system.l2cache.overall_avg_miss_latency::total 110864.618290                       # average overall miss latency
system.l2cache.blocked_cycles::no_mshrs             0                       # number of cycles access was blocked
system.l2cache.blocked_cycles::no_targets            0                       # number of cycles access was blocked
system.l2cache.blocked::no_mshrs                    0                       # number of cycles access was blocked
system.l2cache.blocked::no_targets                  0                       # number of cycles access was blocked
system.l2cache.avg_blocked_cycles::no_mshrs          nan                       # average number of cycles each access was blocked
system.l2cache.avg_blocked_cycles::no_targets          nan                       # average number of cycles each access was blocked
system.l2cache.writebacks::writebacks           28089                       # number of writebacks
system.l2cache.writebacks::total                28089                       # number of writebacks
system.l2cache.CleanEvict_mshr_misses::writebacks        12644                       # number of CleanEvict MSHR misses
system.l2cache.CleanEvict_mshr_misses::total        12644                       # number of CleanEvict MSHR misses
system.l2cache.ReadExReq_mshr_misses::cpu.data        21594                       # number of ReadExReq MSHR misses
system.l2cache.ReadExReq_mshr_misses::total        21594                       # number of ReadExReq MSHR misses
system.l2cache.ReadSharedReq_mshr_misses::cpu.inst         2092                       # number of ReadSharedReq MSHR misses
system.l2cache.ReadSharedReq_mshr_misses::cpu.data        45149                       # number of ReadSharedReq MSHR misses
system.l2cache.ReadSharedReq_mshr_misses::total        47241                       # number of ReadSharedReq MSHR misses
system.l2cache.demand_mshr_misses::cpu.inst         2092                       # number of demand (read+write) MSHR misses
system.l2cache.demand_mshr_misses::cpu.data        66743                       # number of demand (read+write) MSHR misses
system.l2cache.demand_mshr_misses::total        68835                       # number of demand (read+write) MSHR misses
system.l2cache.overall_mshr_misses::cpu.inst         2092                       # number of overall MSHR misses
system.l2cache.overall_mshr_misses::cpu.data        66743                       # number of overall MSHR misses
system.l2cache.overall_mshr_misses::total        68835                       # number of overall MSHR misses
system.l2cache.ReadExReq_mshr_miss_latency::cpu.data   1964900000                       # number of ReadExReq MSHR miss cycles
system.l2cache.ReadExReq_mshr_miss_latency::total   1964900000                       # number of ReadExReq MSHR miss cycles
system.l2cache.ReadSharedReq_mshr_miss_latency::cpu.inst    186301000                       # number of ReadSharedReq MSHR miss cycles
system.l2cache.ReadSharedReq_mshr_miss_latency::cpu.data   4103465000                       # number of ReadSharedReq MSHR miss cycles
system.l2cache.ReadSharedReq_mshr_miss_latency::total   4289766000                       # number of ReadSharedReq MSHR miss cycles
system.l2cache.demand_mshr_miss_latency::cpu.inst    186301000                       # number of demand (read+write) MSHR miss cycles
system.l2cache.demand_mshr_miss_latency::cpu.data   6068365000                       # number of demand (read+write) MSHR miss cycles
system.l2cache.demand_mshr_miss_latency::total   6254666000                       # number of demand (read+write) MSHR miss cycles
system.l2cache.overall_mshr_miss_latency::cpu.inst    186301000                       # number of overall MSHR miss cycles
system.l2cache.overall_mshr_miss_latency::cpu.data   6068365000                       # number of overall MSHR miss cycles
system.l2cache.overall_mshr_miss_latency::total   6254666000                       # number of overall MSHR miss cycles
system.l2cache.CleanEvict_mshr_miss_rate::writebacks          inf                       # mshr miss rate for CleanEvict accesses
system.l2cache.CleanEvict_mshr_miss_rate::total          inf                       # mshr miss rate for CleanEvict accesses
system.l2cache.ReadExReq_mshr_miss_rate::cpu.data     0.909030                       # mshr miss rate for ReadExReq accesses
system.l2cache.ReadExReq_mshr_miss_rate::total     0.909030                       # mshr miss rate for ReadExReq accesses
system.l2cache.ReadSharedReq_mshr_miss_rate::cpu.inst     0.983083                       # mshr miss rate for ReadSharedReq accesses
system.l2cache.ReadSharedReq_mshr_miss_rate::cpu.data     0.786417                       # mshr miss rate for ReadSharedReq accesses
system.l2cache.ReadSharedReq_mshr_miss_rate::total     0.793446                       # mshr miss rate for ReadSharedReq accesses
system.l2cache.demand_mshr_miss_rate::cpu.inst     0.983083                       # mshr miss rate for demand accesses
system.l2cache.demand_mshr_miss_rate::cpu.data     0.822302                       # mshr miss rate for demand accesses
system.l2cache.demand_mshr_miss_rate::total     0.826410                       # mshr miss rate for demand accesses
system.l2cache.overall_mshr_miss_rate::cpu.inst     0.983083                       # mshr miss rate for overall accesses
system.l2cache.overall_mshr_miss_rate::cpu.data     0.822302                       # mshr miss rate for overall accesses
system.l2cache.overall_mshr_miss_rate::total     0.826410                       # mshr miss rate for overall accesses
system.l2cache.ReadExReq_avg_mshr_miss_latency::cpu.data 90992.868389                       # average ReadExReq mshr miss latency
system.l2cache.ReadExReq_avg_mshr_miss_latency::total 90992.868389                       # average ReadExReq mshr miss latency
system.l2cache.ReadSharedReq_avg_mshr_miss_latency::cpu.inst 89054.015296                       # average ReadSharedReq mshr miss latency
system.l2cache.ReadSharedReq_avg_mshr_miss_latency::cpu.data 90887.173581                       # average ReadSharedReq mshr miss latency
system.l2cache.ReadSharedReq_avg_mshr_miss_latency::total 90805.994793                       # average ReadSharedReq mshr miss latency
system.l2cache.demand_avg_mshr_miss_latency::cpu.inst 89054.015296                       # average overall mshr miss latency
system.l2cache.demand_avg_mshr_miss_latency::cpu.data 90921.370031                       # average overall mshr miss latency
system.l2cache.demand_avg_mshr_miss_latency::total 90864.618290                       # average overall mshr miss latency
system.l2cache.overall_avg_mshr_miss_latency::cpu.inst 89054.015296                       # average overall mshr miss latency
system.l2cache.overall_avg_mshr_miss_latency::cpu.data 90921.370031                       # average overall mshr miss latency
system.l2cache.overall_avg_mshr_miss_latency::total 90864.618290                       # average overall mshr miss latency
system.membus.snoop_filter.tot_requests        134715                       # Total number of requests made to the snoop filter.
system.membus.snoop_filter.hit_single_requests        65881                       # Number of requests hitting in the snoop filter with a single holder of the requested data.
system.membus.snoop_filter.hit_multi_requests            0                       # Number of requests hitting in the snoop filter with multiple (>1) holders of the requested data.
system.membus.snoop_filter.tot_snoops               0                       # Total number of snoops made to the snoop filter.
system.membus.snoop_filter.hit_single_snoops            0                       # Number of snoops hitting in the snoop filter with a single holder of the requested data.
system.membus.snoop_filter.hit_multi_snoops            0                       # Number of snoops hitting in the snoop filter with multiple (>1) holders of the requested data.
system.membus.pwrStateResidencyTicks::UNDEFINED  49339052000                       # Cumulative time (in ticks) in various power states
system.membus.trans_dist::ReadResp              47241                       # Transaction distribution
system.membus.trans_dist::WritebackDirty        28089                       # Transaction distribution
system.membus.trans_dist::CleanEvict            37791                       # Transaction distribution
system.membus.trans_dist::ReadExReq             21594                       # Transaction distribution
system.membus.trans_dist::ReadExResp            21594                       # Transaction distribution
system.membus.trans_dist::ReadSharedReq         47241                       # Transaction distribution
system.membus.pkt_count_system.l2cache.mem_side::system.mem_ctrl.port       203550                       # Packet count per connected master and slave (bytes)
system.membus.pkt_count_system.l2cache.mem_side::total       203550                       # Packet count per connected master and slave (bytes)
system.membus.pkt_count::total                 203550                       # Packet count per connected master and slave (bytes)
system.membus.pkt_size_system.l2cache.mem_side::system.mem_ctrl.port      6203136                       # Cumulative packet size per connected master and slave (bytes)
system.membus.pkt_size_system.l2cache.mem_side::total      6203136                       # Cumulative packet size per connected master and slave (bytes)
system.membus.pkt_size::total                 6203136                       # Cumulative packet size per connected master and slave (bytes)
system.membus.snoops                                0                       # Total snoops (count)
system.membus.snoopTraffic                          0                       # Total snoop traffic (bytes)
system.membus.snoop_fanout::samples             68835                       # Request fanout histogram
system.membus.snoop_fanout::mean                    0                       # Request fanout histogram
system.membus.snoop_fanout::stdev                   0                       # Request fanout histogram
system.membus.snoop_fanout::underflows              0      0.00%      0.00% # Request fanout histogram
system.membus.snoop_fanout::0                   68835    100.00%    100.00% # Request fanout histogram
system.membus.snoop_fanout::1                       0      0.00%    100.00% # Request fanout histogram
system.membus.snoop_fanout::overflows               0      0.00%    100.00% # Request fanout histogram
system.membus.snoop_fanout::min_value               0                       # Request fanout histogram
system.membus.snoop_fanout::max_value               0                       # Request fanout histogram
system.membus.snoop_fanout::total               68835                       # Request fanout histogram
system.membus.reqLayer2.occupancy           247071000                       # Layer occupancy (ticks)
system.membus.reqLayer2.utilization               0.5                       # Layer utilization (%)
system.membus.respLayer0.occupancy          371193250                       # Layer occupancy (ticks)
system.membus.respLayer0.utilization              0.8                       # Layer utilization (%)

---------- End Simulation Statistics   ----------
