
---------- Begin Simulation Statistics ----------
sim_seconds                                  0.038075                       # Number of seconds simulated
sim_ticks                                 38075109000                       # Number of ticks simulated
final_tick                                38075109000                       # Number of ticks from beginning of simulation (restored from checkpoints and never reset)
sim_freq                                 1000000000000                       # Frequency of simulated ticks
host_inst_rate                                1318829                       # Simulator instruction rate (inst/s)
host_op_rate                                  2290069                       # Simulator op (including micro ops) rate (op/s)
host_tick_rate                             5015725985                       # Simulator tick rate (ticks/s)
host_mem_usage                                 670372                       # Number of bytes of host memory used
host_seconds                                     7.59                       # Real time elapsed on the host
sim_insts                                    10011403                       # Number of instructions simulated
sim_ops                                      17384235                       # Number of ops (including micro ops) simulated
system.clk_domain.voltage_domain.voltage            1                       # Voltage in Volts
system.clk_domain.clock                          1000                       # Clock period in ticks
system.mem_ctrl.pwrStateResidencyTicks::UNDEFINED  38075109000                       # Cumulative time (in ticks) in various power states
system.mem_ctrl.bytes_read::cpu.inst            55424                       # Number of bytes read from this memory
system.mem_ctrl.bytes_read::cpu.data           236288                       # Number of bytes read from this memory
system.mem_ctrl.bytes_read::total              291712                       # Number of bytes read from this memory
system.mem_ctrl.bytes_inst_read::cpu.inst        55424                       # Number of instructions bytes read from this memory
system.mem_ctrl.bytes_inst_read::total          55424                       # Number of instructions bytes read from this memory
system.mem_ctrl.bytes_written::writebacks         5568                       # Number of bytes written to this memory
system.mem_ctrl.bytes_written::total             5568                       # Number of bytes written to this memory
system.mem_ctrl.num_reads::cpu.inst               866                       # Number of read requests responded to by this memory
system.mem_ctrl.num_reads::cpu.data              3692                       # Number of read requests responded to by this memory
system.mem_ctrl.num_reads::total                 4558                       # Number of read requests responded to by this memory
system.mem_ctrl.num_writes::writebacks             87                       # Number of write requests responded to by this memory
system.mem_ctrl.num_writes::total                  87                       # Number of write requests responded to by this memory
system.mem_ctrl.bw_read::cpu.inst             1455649                       # Total read bandwidth from this memory (bytes/s)
system.mem_ctrl.bw_read::cpu.data             6205839                       # Total read bandwidth from this memory (bytes/s)
system.mem_ctrl.bw_read::total                7661488                       # Total read bandwidth from this memory (bytes/s)
system.mem_ctrl.bw_inst_read::cpu.inst        1455649                       # Instruction read bandwidth from this memory (bytes/s)
system.mem_ctrl.bw_inst_read::total           1455649                       # Instruction read bandwidth from this memory (bytes/s)
system.mem_ctrl.bw_write::writebacks           146237                       # Write bandwidth from this memory (bytes/s)
system.mem_ctrl.bw_write::total                146237                       # Write bandwidth from this memory (bytes/s)
system.mem_ctrl.bw_total::writebacks           146237                       # Total bandwidth to/from this memory (bytes/s)
system.mem_ctrl.bw_total::cpu.inst            1455649                       # Total bandwidth to/from this memory (bytes/s)
system.mem_ctrl.bw_total::cpu.data            6205839                       # Total bandwidth to/from this memory (bytes/s)
system.mem_ctrl.bw_total::total               7807726                       # Total bandwidth to/from this memory (bytes/s)
system.mem_ctrl.readReqs                         4558                       # Number of read requests accepted
system.mem_ctrl.writeReqs                          87                       # Number of write requests accepted
system.mem_ctrl.readBursts                       4558                       # Number of DRAM read bursts, including those serviced by the write queue
system.mem_ctrl.writeBursts                        87                       # Number of DRAM write bursts, including those merged in the write queue
system.mem_ctrl.bytesReadDRAM                  291264                       # Total number of bytes read from DRAM
system.mem_ctrl.bytesReadWrQ                      448                       # Total number of bytes read from write queue
system.mem_ctrl.bytesWritten                     4288                       # Total number of bytes written to DRAM
system.mem_ctrl.bytesReadSys                   291712                       # Total read bytes from the system interface side
system.mem_ctrl.bytesWrittenSys                  5568                       # Total written bytes from the system interface side
system.mem_ctrl.servicedByWrQ                       7                       # Number of DRAM read bursts serviced by the write queue
system.mem_ctrl.mergedWrBursts                      0                       # Number of DRAM write bursts merged with an existing one
system.mem_ctrl.neitherReadNorWriteReqs             0                       # Number of requests that are neither read nor write
system.mem_ctrl.perBankRdBursts::0                368                       # Per bank write bursts
system.mem_ctrl.perBankRdBursts::1                259                       # Per bank write bursts
system.mem_ctrl.perBankRdBursts::2                358                       # Per bank write bursts
system.mem_ctrl.perBankRdBursts::3                303                       # Per bank write bursts
system.mem_ctrl.perBankRdBursts::4                347                       # Per bank write bursts
system.mem_ctrl.perBankRdBursts::5                402                       # Per bank write bursts
system.mem_ctrl.perBankRdBursts::6                420                       # Per bank write bursts
system.mem_ctrl.perBankRdBursts::7                353                       # Per bank write bursts
system.mem_ctrl.perBankRdBursts::8                261                       # Per bank write bursts
system.mem_ctrl.perBankRdBursts::9                196                       # Per bank write bursts
system.mem_ctrl.perBankRdBursts::10               253                       # Per bank write bursts
system.mem_ctrl.perBankRdBursts::11               195                       # Per bank write bursts
system.mem_ctrl.perBankRdBursts::12               210                       # Per bank write bursts
system.mem_ctrl.perBankRdBursts::13               245                       # Per bank write bursts
system.mem_ctrl.perBankRdBursts::14               192                       # Per bank write bursts
system.mem_ctrl.perBankRdBursts::15               189                       # Per bank write bursts
system.mem_ctrl.perBankWrBursts::0                  4                       # Per bank write bursts
system.mem_ctrl.perBankWrBursts::1                  1                       # Per bank write bursts
system.mem_ctrl.perBankWrBursts::2                  8                       # Per bank write bursts
system.mem_ctrl.perBankWrBursts::3                  0                       # Per bank write bursts
system.mem_ctrl.perBankWrBursts::4                  1                       # Per bank write bursts
system.mem_ctrl.perBankWrBursts::5                  6                       # Per bank write bursts
system.mem_ctrl.perBankWrBursts::6                  7                       # Per bank write bursts
system.mem_ctrl.perBankWrBursts::7                 13                       # Per bank write bursts
system.mem_ctrl.perBankWrBursts::8                  0                       # Per bank write bursts
system.mem_ctrl.perBankWrBursts::9                  0                       # Per bank write bursts
system.mem_ctrl.perBankWrBursts::10                27                       # Per bank write bursts
system.mem_ctrl.perBankWrBursts::11                 0                       # Per bank write bursts
system.mem_ctrl.perBankWrBursts::12                 0                       # Per bank write bursts
system.mem_ctrl.perBankWrBursts::13                 0                       # Per bank write bursts
system.mem_ctrl.perBankWrBursts::14                 0                       # Per bank write bursts
system.mem_ctrl.perBankWrBursts::15                 0                       # Per bank write bursts
system.mem_ctrl.numRdRetry                          0                       # Number of times read queue was full causing retry
system.mem_ctrl.numWrRetry                          0                       # Number of times write queue was full causing retry
system.mem_ctrl.totGap                    38075004000                       # Total gap between requests
system.mem_ctrl.readPktSize::0                      0                       # Read request sizes (log2)
system.mem_ctrl.readPktSize::1                      0                       # Read request sizes (log2)
system.mem_ctrl.readPktSize::2                      0                       # Read request sizes (log2)
system.mem_ctrl.readPktSize::3                      0                       # Read request sizes (log2)
system.mem_ctrl.readPktSize::4                      0                       # Read request sizes (log2)
system.mem_ctrl.readPktSize::5                      0                       # Read request sizes (log2)
system.mem_ctrl.readPktSize::6                   4558                       # Read request sizes (log2)
system.mem_ctrl.writePktSize::0                     0                       # Write request sizes (log2)
system.mem_ctrl.writePktSize::1                     0                       # Write request sizes (log2)
system.mem_ctrl.writePktSize::2                     0                       # Write request sizes (log2)
system.mem_ctrl.writePktSize::3                     0                       # Write request sizes (log2)
system.mem_ctrl.writePktSize::4                     0                       # Write request sizes (log2)
system.mem_ctrl.writePktSize::5                     0                       # Write request sizes (log2)
system.mem_ctrl.writePktSize::6                    87                       # Write request sizes (log2)
system.mem_ctrl.rdQLenPdf::0                     4551                       # What read queue length does an incoming req see
system.mem_ctrl.rdQLenPdf::1                        0                       # What read queue length does an incoming req see
system.mem_ctrl.rdQLenPdf::2                        0                       # What read queue length does an incoming req see
system.mem_ctrl.rdQLenPdf::3                        0                       # What read queue length does an incoming req see
system.mem_ctrl.rdQLenPdf::4                        0                       # What read queue length does an incoming req see
system.mem_ctrl.rdQLenPdf::5                        0                       # What read queue length does an incoming req see
system.mem_ctrl.rdQLenPdf::6                        0                       # What read queue length does an incoming req see
system.mem_ctrl.rdQLenPdf::7                        0                       # What read queue length does an incoming req see
system.mem_ctrl.rdQLenPdf::8                        0                       # What read queue length does an incoming req see
system.mem_ctrl.rdQLenPdf::9                        0                       # What read queue length does an incoming req see
system.mem_ctrl.rdQLenPdf::10                       0                       # What read queue length does an incoming req see
system.mem_ctrl.rdQLenPdf::11                       0                       # What read queue length does an incoming req see
system.mem_ctrl.rdQLenPdf::12                       0                       # What read queue length does an incoming req see
system.mem_ctrl.rdQLenPdf::13                       0                       # What read queue length does an incoming req see
system.mem_ctrl.rdQLenPdf::14                       0                       # What read queue length does an incoming req see
system.mem_ctrl.rdQLenPdf::15                       0                       # What read queue length does an incoming req see
system.mem_ctrl.rdQLenPdf::16                       0                       # What read queue length does an incoming req see
system.mem_ctrl.rdQLenPdf::17                       0                       # What read queue length does an incoming req see
system.mem_ctrl.rdQLenPdf::18                       0                       # What read queue length does an incoming req see
system.mem_ctrl.rdQLenPdf::19                       0                       # What read queue length does an incoming req see
system.mem_ctrl.rdQLenPdf::20                       0                       # What read queue length does an incoming req see
system.mem_ctrl.rdQLenPdf::21                       0                       # What read queue length does an incoming req see
system.mem_ctrl.rdQLenPdf::22                       0                       # What read queue length does an incoming req see
system.mem_ctrl.rdQLenPdf::23                       0                       # What read queue length does an incoming req see
system.mem_ctrl.rdQLenPdf::24                       0                       # What read queue length does an incoming req see
system.mem_ctrl.rdQLenPdf::25                       0                       # What read queue length does an incoming req see
system.mem_ctrl.rdQLenPdf::26                       0                       # What read queue length does an incoming req see
system.mem_ctrl.rdQLenPdf::27                       0                       # What read queue length does an incoming req see
system.mem_ctrl.rdQLenPdf::28                       0                       # What read queue length does an incoming req see
system.mem_ctrl.rdQLenPdf::29                       0                       # What read queue length does an incoming req see
system.mem_ctrl.rdQLenPdf::30                       0                       # What read queue length does an incoming req see
system.mem_ctrl.rdQLenPdf::31                       0                       # What read queue length does an incoming req see
system.mem_ctrl.wrQLenPdf::0                        1                       # What write queue length does an incoming req see
system.mem_ctrl.wrQLenPdf::1                        1                       # What write queue length does an incoming req see
system.mem_ctrl.wrQLenPdf::2                        1                       # What write queue length does an incoming req see
system.mem_ctrl.wrQLenPdf::3                        1                       # What write queue length does an incoming req see
system.mem_ctrl.wrQLenPdf::4                        1                       # What write queue length does an incoming req see
system.mem_ctrl.wrQLenPdf::5                        1                       # What write queue length does an incoming req see
system.mem_ctrl.wrQLenPdf::6                        1                       # What write queue length does an incoming req see
system.mem_ctrl.wrQLenPdf::7                        1                       # What write queue length does an incoming req see
system.mem_ctrl.wrQLenPdf::8                        1                       # What write queue length does an incoming req see
system.mem_ctrl.wrQLenPdf::9                        1                       # What write queue length does an incoming req see
system.mem_ctrl.wrQLenPdf::10                       1                       # What write queue length does an incoming req see
system.mem_ctrl.wrQLenPdf::11                       1                       # What write queue length does an incoming req see
system.mem_ctrl.wrQLenPdf::12                       1                       # What write queue length does an incoming req see
system.mem_ctrl.wrQLenPdf::13                       1                       # What write queue length does an incoming req see
system.mem_ctrl.wrQLenPdf::14                       1                       # What write queue length does an incoming req see
system.mem_ctrl.wrQLenPdf::15                       2                       # What write queue length does an incoming req see
system.mem_ctrl.wrQLenPdf::16                       3                       # What write queue length does an incoming req see
system.mem_ctrl.wrQLenPdf::17                       5                       # What write queue length does an incoming req see
system.mem_ctrl.wrQLenPdf::18                       5                       # What write queue length does an incoming req see
system.mem_ctrl.wrQLenPdf::19                       5                       # What write queue length does an incoming req see
system.mem_ctrl.wrQLenPdf::20                       4                       # What write queue length does an incoming req see
system.mem_ctrl.wrQLenPdf::21                       4                       # What write queue length does an incoming req see
system.mem_ctrl.wrQLenPdf::22                       4                       # What write queue length does an incoming req see
system.mem_ctrl.wrQLenPdf::23                       4                       # What write queue length does an incoming req see
system.mem_ctrl.wrQLenPdf::24                       4                       # What write queue length does an incoming req see
system.mem_ctrl.wrQLenPdf::25                       4                       # What write queue length does an incoming req see
system.mem_ctrl.wrQLenPdf::26                       4                       # What write queue length does an incoming req see
system.mem_ctrl.wrQLenPdf::27                       4                       # What write queue length does an incoming req see
system.mem_ctrl.wrQLenPdf::28                       4                       # What write queue length does an incoming req see
system.mem_ctrl.wrQLenPdf::29                       4                       # What write queue length does an incoming req see
system.mem_ctrl.wrQLenPdf::30                       4                       # What write queue length does an incoming req see
system.mem_ctrl.wrQLenPdf::31                       4                       # What write queue length does an incoming req see
system.mem_ctrl.wrQLenPdf::32                       4                       # What write queue length does an incoming req see
system.mem_ctrl.wrQLenPdf::33                       0                       # What write queue length does an incoming req see
system.mem_ctrl.wrQLenPdf::34                       0                       # What write queue length does an incoming req see
system.mem_ctrl.wrQLenPdf::35                       0                       # What write queue length does an incoming req see
system.mem_ctrl.wrQLenPdf::36                       0                       # What write queue length does an incoming req see
system.mem_ctrl.wrQLenPdf::37                       0                       # What write queue length does an incoming req see
system.mem_ctrl.wrQLenPdf::38                       0                       # What write queue length does an incoming req see
system.mem_ctrl.wrQLenPdf::39                       0                       # What write queue length does an incoming req see
system.mem_ctrl.wrQLenPdf::40                       0                       # What write queue length does an incoming req see
system.mem_ctrl.wrQLenPdf::41                       0                       # What write queue length does an incoming req see
system.mem_ctrl.wrQLenPdf::42                       0                       # What write queue length does an incoming req see
system.mem_ctrl.wrQLenPdf::43                       0                       # What write queue length does an incoming req see
system.mem_ctrl.wrQLenPdf::44                       0                       # What write queue length does an incoming req see
system.mem_ctrl.wrQLenPdf::45                       0                       # What write queue length does an incoming req see
system.mem_ctrl.wrQLenPdf::46                       0                       # What write queue length does an incoming req see
system.mem_ctrl.wrQLenPdf::47                       0                       # What write queue length does an incoming req see
system.mem_ctrl.wrQLenPdf::48                       0                       # What write queue length does an incoming req see
system.mem_ctrl.wrQLenPdf::49                       0                       # What write queue length does an incoming req see
system.mem_ctrl.wrQLenPdf::50                       0                       # What write queue length does an incoming req see
system.mem_ctrl.wrQLenPdf::51                       0                       # What write queue length does an incoming req see
system.mem_ctrl.wrQLenPdf::52                       0                       # What write queue length does an incoming req see
system.mem_ctrl.wrQLenPdf::53                       0                       # What write queue length does an incoming req see
system.mem_ctrl.wrQLenPdf::54                       0                       # What write queue length does an incoming req see
system.mem_ctrl.wrQLenPdf::55                       0                       # What write queue length does an incoming req see
system.mem_ctrl.wrQLenPdf::56                       0                       # What write queue length does an incoming req see
system.mem_ctrl.wrQLenPdf::57                       0                       # What write queue length does an incoming req see
system.mem_ctrl.wrQLenPdf::58                       0                       # What write queue length does an incoming req see
system.mem_ctrl.wrQLenPdf::59                       0                       # What write queue length does an incoming req see
system.mem_ctrl.wrQLenPdf::60                       0                       # What write queue length does an incoming req see
system.mem_ctrl.wrQLenPdf::61                       0                       # What write queue length does an incoming req see
system.mem_ctrl.wrQLenPdf::62                       0                       # What write queue length does an incoming req see
system.mem_ctrl.wrQLenPdf::63                       0                       # What write queue length does an incoming req see
system.mem_ctrl.bytesPerActivate::samples         1353                       # Bytes accessed per row activation
system.mem_ctrl.bytesPerActivate::mean     217.637842                       # Bytes accessed per row activation
system.mem_ctrl.bytesPerActivate::gmean    155.350826                       # Bytes accessed per row activation
system.mem_ctrl.bytesPerActivate::stdev    237.477103                       # Bytes accessed per row activation
system.mem_ctrl.bytesPerActivate::0-127           259     19.14%     19.14% # Bytes accessed per row activation
system.mem_ctrl.bytesPerActivate::128-255          816     60.31%     79.45% # Bytes accessed per row activation
system.mem_ctrl.bytesPerActivate::256-383           83      6.13%     85.59% # Bytes accessed per row activation
system.mem_ctrl.bytesPerActivate::384-511           55      4.07%     89.65% # Bytes accessed per row activation
system.mem_ctrl.bytesPerActivate::512-639           28      2.07%     91.72% # Bytes accessed per row activation
system.mem_ctrl.bytesPerActivate::640-767           11      0.81%     92.54% # Bytes accessed per row activation
system.mem_ctrl.bytesPerActivate::768-895           17      1.26%     93.79% # Bytes accessed per row activation
system.mem_ctrl.bytesPerActivate::896-1023           20      1.48%     95.27% # Bytes accessed per row activation
system.mem_ctrl.bytesPerActivate::1024-1151           64      4.73%    100.00% # Bytes accessed per row activation
system.mem_ctrl.bytesPerActivate::total          1353                       # Bytes accessed per row activation
system.mem_ctrl.rdPerTurnAround::samples            4                       # Reads before turning the bus around for writes
system.mem_ctrl.rdPerTurnAround::mean            1125                       # Reads before turning the bus around for writes
system.mem_ctrl.rdPerTurnAround::gmean     470.827115                       # Reads before turning the bus around for writes
system.mem_ctrl.rdPerTurnAround::stdev    1766.184777                       # Reads before turning the bus around for writes
system.mem_ctrl.rdPerTurnAround::128-255            1     25.00%     25.00% # Reads before turning the bus around for writes
system.mem_ctrl.rdPerTurnAround::256-383            2     50.00%     75.00% # Reads before turning the bus around for writes
system.mem_ctrl.rdPerTurnAround::3712-3839            1     25.00%    100.00% # Reads before turning the bus around for writes
system.mem_ctrl.rdPerTurnAround::total              4                       # Reads before turning the bus around for writes
system.mem_ctrl.wrPerTurnAround::samples            4                       # Writes before turning the bus around for reads
system.mem_ctrl.wrPerTurnAround::mean       16.750000                       # Writes before turning the bus around for reads
system.mem_ctrl.wrPerTurnAround::gmean      16.729785                       # Writes before turning the bus around for reads
system.mem_ctrl.wrPerTurnAround::stdev       0.957427                       # Writes before turning the bus around for reads
system.mem_ctrl.wrPerTurnAround::16                 2     50.00%     50.00% # Writes before turning the bus around for reads
system.mem_ctrl.wrPerTurnAround::17                 1     25.00%     75.00% # Writes before turning the bus around for reads
system.mem_ctrl.wrPerTurnAround::18                 1     25.00%    100.00% # Writes before turning the bus around for reads
system.mem_ctrl.wrPerTurnAround::total              4                       # Writes before turning the bus around for reads
system.mem_ctrl.totQLat                      67980750                       # Total ticks spent queuing
system.mem_ctrl.totMemAccLat                153312000                       # Total ticks spent from burst creation until serviced by the DRAM
system.mem_ctrl.totBusLat                    22755000                       # Total ticks spent in databus transfers
system.mem_ctrl.avgQLat                      14937.54                       # Average queueing delay per DRAM burst
system.mem_ctrl.avgBusLat                     5000.00                       # Average bus latency per DRAM burst
system.mem_ctrl.avgMemAccLat                 33687.54                       # Average memory access latency per DRAM burst
system.mem_ctrl.avgRdBW                          7.65                       # Average DRAM read bandwidth in MiByte/s
system.mem_ctrl.avgWrBW                          0.11                       # Average achieved write bandwidth in MiByte/s
system.mem_ctrl.avgRdBWSys                       7.66                       # Average system read bandwidth in MiByte/s
system.mem_ctrl.avgWrBWSys                       0.15                       # Average system write bandwidth in MiByte/s
system.mem_ctrl.peakBW                       12800.00                       # Theoretical peak bandwidth in MiByte/s
system.mem_ctrl.busUtil                          0.06                       # Data bus utilization in percentage
system.mem_ctrl.busUtilRead                      0.06                       # Data bus utilization in percentage for reads
system.mem_ctrl.busUtilWrite                     0.00                       # Data bus utilization in percentage for writes
system.mem_ctrl.avgRdQLen                        1.00                       # Average read queue length when enqueuing
system.mem_ctrl.avgWrQLen                       25.18                       # Average write queue length when enqueuing
system.mem_ctrl.readRowHits                      3209                       # Number of row buffer hits during reads
system.mem_ctrl.writeRowHits                       52                       # Number of row buffer hits during writes
system.mem_ctrl.readRowHitRate                  70.51                       # Row buffer hit rate for reads
system.mem_ctrl.writeRowHitRate                 59.77                       # Row buffer hit rate for writes
system.mem_ctrl.avgGap                     8196986.87                       # Average gap between requests
system.mem_ctrl.pageHitRate                     70.31                       # Row buffer hit rate, read and write combined
system.mem_ctrl_0.actEnergy                   6040440                       # Energy for activate commands per rank (pJ)
system.mem_ctrl_0.preEnergy                   3206775                       # Energy for precharge commands per rank (pJ)
system.mem_ctrl_0.readEnergy                 20063400                       # Energy for read commands per rank (pJ)
system.mem_ctrl_0.writeEnergy                  208800                       # Energy for write commands per rank (pJ)
system.mem_ctrl_0.refreshEnergy          316539600.000000                       # Energy for refresh commands per rank (pJ)
system.mem_ctrl_0.actBackEnergy              99486660                       # Energy for active background per rank (pJ)
system.mem_ctrl_0.preBackEnergy               7372800                       # Energy for precharge background per rank (pJ)
system.mem_ctrl_0.actPowerDownEnergy       1368945630                       # Energy for active power-down per rank (pJ)
system.mem_ctrl_0.prePowerDownEnergy        277008480                       # Energy for precharge power-down per rank (pJ)
system.mem_ctrl_0.selfRefreshEnergy        8191294680                       # Energy for self refresh per rank (pJ)
system.mem_ctrl_0.totalEnergy             10290167265                       # Total energy per rank (pJ)
system.mem_ctrl_0.averagePower             270.259686                       # Core power per rank (mW)
system.mem_ctrl_0.totalIdleTime           37837586000                       # Total Idle time Per DRAM Rank
system.mem_ctrl_0.memoryStateTime::IDLE       5006000                       # Time in different power states
system.mem_ctrl_0.memoryStateTime::REF      133942000                       # Time in different power states
system.mem_ctrl_0.memoryStateTime::SREF   34114287250                       # Time in different power states
system.mem_ctrl_0.memoryStateTime::PRE_PDN    721273000                       # Time in different power states
system.mem_ctrl_0.memoryStateTime::ACT       98517750                       # Time in different power states
system.mem_ctrl_0.memoryStateTime::ACT_PDN   3002083000                       # Time in different power states
system.mem_ctrl_1.actEnergy                   3648540                       # Energy for activate commands per rank (pJ)
system.mem_ctrl_1.preEnergy                   1927860                       # Energy for precharge commands per rank (pJ)
system.mem_ctrl_1.readEnergy                 12430740                       # Energy for read commands per rank (pJ)
system.mem_ctrl_1.writeEnergy                  140940                       # Energy for write commands per rank (pJ)
system.mem_ctrl_1.refreshEnergy          197914080.000000                       # Energy for refresh commands per rank (pJ)
system.mem_ctrl_1.actBackEnergy              67510800                       # Energy for active background per rank (pJ)
system.mem_ctrl_1.preBackEnergy               4818240                       # Energy for precharge background per rank (pJ)
system.mem_ctrl_1.actPowerDownEnergy        830746500                       # Energy for active power-down per rank (pJ)
system.mem_ctrl_1.prePowerDownEnergy        185810400                       # Energy for precharge power-down per rank (pJ)
system.mem_ctrl_1.selfRefreshEnergy        8549429940                       # Energy for self refresh per rank (pJ)
system.mem_ctrl_1.totalEnergy              9854378040                       # Total energy per rank (pJ)
system.mem_ctrl_1.averagePower             258.814171                       # Core power per rank (mW)
system.mem_ctrl_1.totalIdleTime           37914171250                       # Total Idle time Per DRAM Rank
system.mem_ctrl_1.memoryStateTime::IDLE       3569000                       # Time in different power states
system.mem_ctrl_1.memoryStateTime::REF       83756000                       # Time in different power states
system.mem_ctrl_1.memoryStateTime::SREF   35608817250                       # Time in different power states
system.mem_ctrl_1.memoryStateTime::PRE_PDN    483824750                       # Time in different power states
system.mem_ctrl_1.memoryStateTime::ACT       73207500                       # Time in different power states
system.mem_ctrl_1.memoryStateTime::ACT_PDN   1821934500                       # Time in different power states
system.pwrStateResidencyTicks::UNDEFINED  38075109000                       # Cumulative time (in ticks) in various power states
system.cpu.dtb.walker.pwrStateResidencyTicks::UNDEFINED  38075109000                       # Cumulative time (in ticks) in various power states
system.cpu.apic_clk_domain.clock                16000                       # Clock period in ticks
system.cpu.interrupts.pwrStateResidencyTicks::UNDEFINED  38075109000                       # Cumulative time (in ticks) in various power states
system.cpu.itb.walker.pwrStateResidencyTicks::UNDEFINED  38075109000                       # Cumulative time (in ticks) in various power states
system.cpu.workload.numSyscalls                    35                       # Number of system calls
system.cpu.pwrStateResidencyTicks::ON     38075109000                       # Cumulative time (in ticks) in various power states
system.cpu.numCycles                         38075109                       # number of cpu cycles simulated
system.cpu.numWorkItemsStarted                      0                       # number of work items this cpu started
system.cpu.numWorkItemsCompleted                    0                       # number of work items this cpu completed
system.cpu.committedInsts                    10011403                       # Number of instructions committed
system.cpu.committedOps                      17384235                       # Number of ops (including micro ops) committed
system.cpu.num_int_alu_accesses               6542463                       # Number of integer alu accesses
system.cpu.num_fp_alu_accesses               13367856                       # Number of float alu accesses
system.cpu.num_func_calls                      128496                       # number of times a function call or return occured
system.cpu.num_conditional_control_insts       230068                       # number of instructions that are conditional controls
system.cpu.num_int_insts                      6542463                       # number of integer instructions
system.cpu.num_fp_insts                      13367856                       # number of float instructions
system.cpu.num_int_register_reads            14561187                       # number of times the integer registers were read
system.cpu.num_int_register_writes            3449106                       # number of times the integer registers were written
system.cpu.num_fp_register_reads             16862866                       # number of times the floating registers were read
system.cpu.num_fp_register_writes            13296465                       # number of times the floating registers were written
system.cpu.num_cc_register_reads              1575718                       # number of times the CC registers were read
system.cpu.num_cc_register_writes             2140553                       # number of times the CC registers were written
system.cpu.num_mem_refs                       3090249                       # number of memory refs
system.cpu.num_load_insts                     2817558                       # Number of load instructions
system.cpu.num_store_insts                     272691                       # Number of store instructions
system.cpu.num_idle_cycles                          0                       # Number of idle cycles
system.cpu.num_busy_cycles                   38075109                       # Number of busy cycles
system.cpu.not_idle_fraction                        1                       # Percentage of non-idle cycles
system.cpu.idle_fraction                            0                       # Percentage of idle cycles
system.cpu.Branches                            381581                       # Number of branches fetched
system.cpu.op_class::No_OpClass                  8415      0.05%      0.05% # Class of executed instruction
system.cpu.op_class::IntAlu                   4636336     26.67%     26.72% # Class of executed instruction
system.cpu.op_class::IntMult                    21212      0.12%     26.84% # Class of executed instruction
system.cpu.op_class::IntDiv                      1178      0.01%     26.85% # Class of executed instruction
system.cpu.op_class::FloatAdd                 9626845     55.38%     82.22% # Class of executed instruction
system.cpu.op_class::FloatCmp                       0      0.00%     82.22% # Class of executed instruction
system.cpu.op_class::FloatCvt                       0      0.00%     82.22% # Class of executed instruction
system.cpu.op_class::FloatMult                      0      0.00%     82.22% # Class of executed instruction
system.cpu.op_class::FloatMultAcc                   0      0.00%     82.22% # Class of executed instruction
system.cpu.op_class::FloatDiv                       0      0.00%     82.22% # Class of executed instruction
system.cpu.op_class::FloatMisc                      0      0.00%     82.22% # Class of executed instruction
system.cpu.op_class::FloatSqrt                      0      0.00%     82.22% # Class of executed instruction
system.cpu.op_class::SimdAdd                        0      0.00%     82.22% # Class of executed instruction
system.cpu.op_class::SimdAddAcc                     0      0.00%     82.22% # Class of executed instruction
system.cpu.op_class::SimdAlu                        0      0.00%     82.22% # Class of executed instruction
system.cpu.op_class::SimdCmp                        0      0.00%     82.22% # Class of executed instruction
system.cpu.op_class::SimdCvt                        0      0.00%     82.22% # Class of executed instruction
system.cpu.op_class::SimdMisc                       0      0.00%     82.22% # Class of executed instruction
system.cpu.op_class::SimdMult                       0      0.00%     82.22% # Class of executed instruction
system.cpu.op_class::SimdMultAcc                    0      0.00%     82.22% # Class of executed instruction
system.cpu.op_class::SimdShift                      0      0.00%     82.22% # Class of executed instruction
system.cpu.op_class::SimdShiftAcc                   0      0.00%     82.22% # Class of executed instruction
system.cpu.op_class::SimdSqrt                       0      0.00%     82.22% # Class of executed instruction
system.cpu.op_class::SimdFloatAdd                   0      0.00%     82.22% # Class of executed instruction
system.cpu.op_class::SimdFloatAlu                   0      0.00%     82.22% # Class of executed instruction
system.cpu.op_class::SimdFloatCmp                   0      0.00%     82.22% # Class of executed instruction
system.cpu.op_class::SimdFloatCvt                   0      0.00%     82.22% # Class of executed instruction
system.cpu.op_class::SimdFloatDiv                   0      0.00%     82.22% # Class of executed instruction
system.cpu.op_class::SimdFloatMisc                  0      0.00%     82.22% # Class of executed instruction
system.cpu.op_class::SimdFloatMult                  0      0.00%     82.22% # Class of executed instruction
system.cpu.op_class::SimdFloatMultAcc               0      0.00%     82.22% # Class of executed instruction
system.cpu.op_class::SimdFloatSqrt                  0      0.00%     82.22% # Class of executed instruction
system.cpu.op_class::MemRead                   354166      2.04%     84.26% # Class of executed instruction
system.cpu.op_class::MemWrite                  201731      1.16%     85.42% # Class of executed instruction
system.cpu.op_class::FloatMemRead             2463392     14.17%     99.59% # Class of executed instruction
system.cpu.op_class::FloatMemWrite              70960      0.41%    100.00% # Class of executed instruction
system.cpu.op_class::IprAccess                      0      0.00%    100.00% # Class of executed instruction
system.cpu.op_class::InstPrefetch                   0      0.00%    100.00% # Class of executed instruction
system.cpu.op_class::total                   17384235                       # Class of executed instruction
system.cpu.dcache.tags.pwrStateResidencyTicks::UNDEFINED  38075109000                       # Cumulative time (in ticks) in various power states
system.cpu.dcache.tags.replacements              6190                       # number of replacements
system.cpu.dcache.tags.tagsinuse          1016.951372                       # Cycle average of tags in use
system.cpu.dcache.tags.total_refs             3083045                       # Total number of references to valid blocks.
system.cpu.dcache.tags.sampled_refs              7214                       # Sample count of references to valid blocks.
system.cpu.dcache.tags.avg_refs            427.369698                       # Average number of references to valid blocks.
system.cpu.dcache.tags.warmup_cycle        3745271000                       # Cycle when the warmup percentage was hit.
system.cpu.dcache.tags.occ_blocks::cpu.data  1016.951372                       # Average occupied blocks per requestor
system.cpu.dcache.tags.occ_percent::cpu.data     0.993117                       # Average percentage of cache occupancy
system.cpu.dcache.tags.occ_percent::total     0.993117                       # Average percentage of cache occupancy
system.cpu.dcache.tags.occ_task_id_blocks::1024         1024                       # Occupied blocks per task id
system.cpu.dcache.tags.age_task_id_blocks_1024::0           46                       # Occupied blocks per task id
system.cpu.dcache.tags.age_task_id_blocks_1024::1           40                       # Occupied blocks per task id
system.cpu.dcache.tags.age_task_id_blocks_1024::2           62                       # Occupied blocks per task id
system.cpu.dcache.tags.age_task_id_blocks_1024::3          212                       # Occupied blocks per task id
system.cpu.dcache.tags.age_task_id_blocks_1024::4          664                       # Occupied blocks per task id
system.cpu.dcache.tags.occ_task_id_percent::1024            1                       # Percentage of cache occupancy per task id
system.cpu.dcache.tags.tag_accesses           6187732                       # Number of tag accesses
system.cpu.dcache.tags.data_accesses          6187732                       # Number of data accesses
system.cpu.dcache.pwrStateResidencyTicks::UNDEFINED  38075109000                       # Cumulative time (in ticks) in various power states
system.cpu.dcache.ReadReq_hits::cpu.data      2812266                       # number of ReadReq hits
system.cpu.dcache.ReadReq_hits::total         2812266                       # number of ReadReq hits
system.cpu.dcache.WriteReq_hits::cpu.data       270779                       # number of WriteReq hits
system.cpu.dcache.WriteReq_hits::total         270779                       # number of WriteReq hits
system.cpu.dcache.demand_hits::cpu.data       3083045                       # number of demand (read+write) hits
system.cpu.dcache.demand_hits::total          3083045                       # number of demand (read+write) hits
system.cpu.dcache.overall_hits::cpu.data      3083045                       # number of overall hits
system.cpu.dcache.overall_hits::total         3083045                       # number of overall hits
system.cpu.dcache.ReadReq_misses::cpu.data         5302                       # number of ReadReq misses
system.cpu.dcache.ReadReq_misses::total          5302                       # number of ReadReq misses
system.cpu.dcache.WriteReq_misses::cpu.data         1912                       # number of WriteReq misses
system.cpu.dcache.WriteReq_misses::total         1912                       # number of WriteReq misses
system.cpu.dcache.demand_misses::cpu.data         7214                       # number of demand (read+write) misses
system.cpu.dcache.demand_misses::total           7214                       # number of demand (read+write) misses
system.cpu.dcache.overall_misses::cpu.data         7214                       # number of overall misses
system.cpu.dcache.overall_misses::total          7214                       # number of overall misses
system.cpu.dcache.ReadReq_miss_latency::cpu.data    296060000                       # number of ReadReq miss cycles
system.cpu.dcache.ReadReq_miss_latency::total    296060000                       # number of ReadReq miss cycles
system.cpu.dcache.WriteReq_miss_latency::cpu.data    198908000                       # number of WriteReq miss cycles
system.cpu.dcache.WriteReq_miss_latency::total    198908000                       # number of WriteReq miss cycles
system.cpu.dcache.demand_miss_latency::cpu.data    494968000                       # number of demand (read+write) miss cycles
system.cpu.dcache.demand_miss_latency::total    494968000                       # number of demand (read+write) miss cycles
system.cpu.dcache.overall_miss_latency::cpu.data    494968000                       # number of overall miss cycles
system.cpu.dcache.overall_miss_latency::total    494968000                       # number of overall miss cycles
system.cpu.dcache.ReadReq_accesses::cpu.data      2817568                       # number of ReadReq accesses(hits+misses)
system.cpu.dcache.ReadReq_accesses::total      2817568                       # number of ReadReq accesses(hits+misses)
system.cpu.dcache.WriteReq_accesses::cpu.data       272691                       # number of WriteReq accesses(hits+misses)
system.cpu.dcache.WriteReq_accesses::total       272691                       # number of WriteReq accesses(hits+misses)
system.cpu.dcache.demand_accesses::cpu.data      3090259                       # number of demand (read+write) accesses
system.cpu.dcache.demand_accesses::total      3090259                       # number of demand (read+write) accesses
system.cpu.dcache.overall_accesses::cpu.data      3090259                       # number of overall (read+write) accesses
system.cpu.dcache.overall_accesses::total      3090259                       # number of overall (read+write) accesses
system.cpu.dcache.ReadReq_miss_rate::cpu.data     0.001882                       # miss rate for ReadReq accesses
system.cpu.dcache.ReadReq_miss_rate::total     0.001882                       # miss rate for ReadReq accesses
system.cpu.dcache.WriteReq_miss_rate::cpu.data     0.007012                       # miss rate for WriteReq accesses
system.cpu.dcache.WriteReq_miss_rate::total     0.007012                       # miss rate for WriteReq accesses
system.cpu.dcache.demand_miss_rate::cpu.data     0.002334                       # miss rate for demand accesses
system.cpu.dcache.demand_miss_rate::total     0.002334                       # miss rate for demand accesses
system.cpu.dcache.overall_miss_rate::cpu.data     0.002334                       # miss rate for overall accesses
system.cpu.dcache.overall_miss_rate::total     0.002334                       # miss rate for overall accesses
system.cpu.dcache.ReadReq_avg_miss_latency::cpu.data 55839.305922                       # average ReadReq miss latency
system.cpu.dcache.ReadReq_avg_miss_latency::total 55839.305922                       # average ReadReq miss latency
system.cpu.dcache.WriteReq_avg_miss_latency::cpu.data 104031.380753                       # average WriteReq miss latency
system.cpu.dcache.WriteReq_avg_miss_latency::total 104031.380753                       # average WriteReq miss latency
system.cpu.dcache.demand_avg_miss_latency::cpu.data 68612.143055                       # average overall miss latency
system.cpu.dcache.demand_avg_miss_latency::total 68612.143055                       # average overall miss latency
system.cpu.dcache.overall_avg_miss_latency::cpu.data 68612.143055                       # average overall miss latency
system.cpu.dcache.overall_avg_miss_latency::total 68612.143055                       # average overall miss latency
system.cpu.dcache.blocked_cycles::no_mshrs            0                       # number of cycles access was blocked
system.cpu.dcache.blocked_cycles::no_targets            0                       # number of cycles access was blocked
system.cpu.dcache.blocked::no_mshrs                 0                       # number of cycles access was blocked
system.cpu.dcache.blocked::no_targets               0                       # number of cycles access was blocked
system.cpu.dcache.avg_blocked_cycles::no_mshrs          nan                       # average number of cycles each access was blocked
system.cpu.dcache.avg_blocked_cycles::no_targets          nan                       # average number of cycles each access was blocked
system.cpu.dcache.writebacks::writebacks         4093                       # number of writebacks
system.cpu.dcache.writebacks::total              4093                       # number of writebacks
system.cpu.dcache.ReadReq_mshr_misses::cpu.data         5302                       # number of ReadReq MSHR misses
system.cpu.dcache.ReadReq_mshr_misses::total         5302                       # number of ReadReq MSHR misses
system.cpu.dcache.WriteReq_mshr_misses::cpu.data         1912                       # number of WriteReq MSHR misses
system.cpu.dcache.WriteReq_mshr_misses::total         1912                       # number of WriteReq MSHR misses
system.cpu.dcache.demand_mshr_misses::cpu.data         7214                       # number of demand (read+write) MSHR misses
system.cpu.dcache.demand_mshr_misses::total         7214                       # number of demand (read+write) MSHR misses
system.cpu.dcache.overall_mshr_misses::cpu.data         7214                       # number of overall MSHR misses
system.cpu.dcache.overall_mshr_misses::total         7214                       # number of overall MSHR misses
system.cpu.dcache.ReadReq_mshr_miss_latency::cpu.data    285456000                       # number of ReadReq MSHR miss cycles
system.cpu.dcache.ReadReq_mshr_miss_latency::total    285456000                       # number of ReadReq MSHR miss cycles
system.cpu.dcache.WriteReq_mshr_miss_latency::cpu.data    195084000                       # number of WriteReq MSHR miss cycles
system.cpu.dcache.WriteReq_mshr_miss_latency::total    195084000                       # number of WriteReq MSHR miss cycles
system.cpu.dcache.demand_mshr_miss_latency::cpu.data    480540000                       # number of demand (read+write) MSHR miss cycles
system.cpu.dcache.demand_mshr_miss_latency::total    480540000                       # number of demand (read+write) MSHR miss cycles
system.cpu.dcache.overall_mshr_miss_latency::cpu.data    480540000                       # number of overall MSHR miss cycles
system.cpu.dcache.overall_mshr_miss_latency::total    480540000                       # number of overall MSHR miss cycles
system.cpu.dcache.ReadReq_mshr_miss_rate::cpu.data     0.001882                       # mshr miss rate for ReadReq accesses
system.cpu.dcache.ReadReq_mshr_miss_rate::total     0.001882                       # mshr miss rate for ReadReq accesses
system.cpu.dcache.WriteReq_mshr_miss_rate::cpu.data     0.007012                       # mshr miss rate for WriteReq accesses
system.cpu.dcache.WriteReq_mshr_miss_rate::total     0.007012                       # mshr miss rate for WriteReq accesses
system.cpu.dcache.demand_mshr_miss_rate::cpu.data     0.002334                       # mshr miss rate for demand accesses
system.cpu.dcache.demand_mshr_miss_rate::total     0.002334                       # mshr miss rate for demand accesses
system.cpu.dcache.overall_mshr_miss_rate::cpu.data     0.002334                       # mshr miss rate for overall accesses
system.cpu.dcache.overall_mshr_miss_rate::total     0.002334                       # mshr miss rate for overall accesses
system.cpu.dcache.ReadReq_avg_mshr_miss_latency::cpu.data 53839.305922                       # average ReadReq mshr miss latency
system.cpu.dcache.ReadReq_avg_mshr_miss_latency::total 53839.305922                       # average ReadReq mshr miss latency
system.cpu.dcache.WriteReq_avg_mshr_miss_latency::cpu.data 102031.380753                       # average WriteReq mshr miss latency
system.cpu.dcache.WriteReq_avg_mshr_miss_latency::total 102031.380753                       # average WriteReq mshr miss latency
system.cpu.dcache.demand_avg_mshr_miss_latency::cpu.data 66612.143055                       # average overall mshr miss latency
system.cpu.dcache.demand_avg_mshr_miss_latency::total 66612.143055                       # average overall mshr miss latency
system.cpu.dcache.overall_avg_mshr_miss_latency::cpu.data 66612.143055                       # average overall mshr miss latency
system.cpu.dcache.overall_avg_mshr_miss_latency::total 66612.143055                       # average overall mshr miss latency
system.cpu.icache.tags.pwrStateResidencyTicks::UNDEFINED  38075109000                       # Cumulative time (in ticks) in various power states
system.cpu.icache.tags.replacements               183                       # number of replacements
system.cpu.icache.tags.tagsinuse           639.079086                       # Cycle average of tags in use
system.cpu.icache.tags.total_refs            15658113                       # Total number of references to valid blocks.
system.cpu.icache.tags.sampled_refs               870                       # Sample count of references to valid blocks.
system.cpu.icache.tags.avg_refs          17997.831034                       # Average number of references to valid blocks.
system.cpu.icache.tags.warmup_cycle                 0                       # Cycle when the warmup percentage was hit.
system.cpu.icache.tags.occ_blocks::cpu.inst   639.079086                       # Average occupied blocks per requestor
system.cpu.icache.tags.occ_percent::cpu.inst     0.624101                       # Average percentage of cache occupancy
system.cpu.icache.tags.occ_percent::total     0.624101                       # Average percentage of cache occupancy
system.cpu.icache.tags.occ_task_id_blocks::1024          687                       # Occupied blocks per task id
system.cpu.icache.tags.age_task_id_blocks_1024::0           51                       # Occupied blocks per task id
system.cpu.icache.tags.age_task_id_blocks_1024::1            1                       # Occupied blocks per task id
system.cpu.icache.tags.age_task_id_blocks_1024::4          635                       # Occupied blocks per task id
system.cpu.icache.tags.occ_task_id_percent::1024     0.670898                       # Percentage of cache occupancy per task id
system.cpu.icache.tags.tag_accesses          31318836                       # Number of tag accesses
system.cpu.icache.tags.data_accesses         31318836                       # Number of data accesses
system.cpu.icache.pwrStateResidencyTicks::UNDEFINED  38075109000                       # Cumulative time (in ticks) in various power states
system.cpu.icache.ReadReq_hits::cpu.inst     15658113                       # number of ReadReq hits
system.cpu.icache.ReadReq_hits::total        15658113                       # number of ReadReq hits
system.cpu.icache.demand_hits::cpu.inst      15658113                       # number of demand (read+write) hits
system.cpu.icache.demand_hits::total         15658113                       # number of demand (read+write) hits
system.cpu.icache.overall_hits::cpu.inst     15658113                       # number of overall hits
system.cpu.icache.overall_hits::total        15658113                       # number of overall hits
system.cpu.icache.ReadReq_misses::cpu.inst          870                       # number of ReadReq misses
system.cpu.icache.ReadReq_misses::total           870                       # number of ReadReq misses
system.cpu.icache.demand_misses::cpu.inst          870                       # number of demand (read+write) misses
system.cpu.icache.demand_misses::total            870                       # number of demand (read+write) misses
system.cpu.icache.overall_misses::cpu.inst          870                       # number of overall misses
system.cpu.icache.overall_misses::total           870                       # number of overall misses
system.cpu.icache.ReadReq_miss_latency::cpu.inst     97843000                       # number of ReadReq miss cycles
system.cpu.icache.ReadReq_miss_latency::total     97843000                       # number of ReadReq miss cycles
system.cpu.icache.demand_miss_latency::cpu.inst     97843000                       # number of demand (read+write) miss cycles
system.cpu.icache.demand_miss_latency::total     97843000                       # number of demand (read+write) miss cycles
system.cpu.icache.overall_miss_latency::cpu.inst     97843000                       # number of overall miss cycles
system.cpu.icache.overall_miss_latency::total     97843000                       # number of overall miss cycles
system.cpu.icache.ReadReq_accesses::cpu.inst     15658983                       # number of ReadReq accesses(hits+misses)
system.cpu.icache.ReadReq_accesses::total     15658983                       # number of ReadReq accesses(hits+misses)
system.cpu.icache.demand_accesses::cpu.inst     15658983                       # number of demand (read+write) accesses
system.cpu.icache.demand_accesses::total     15658983                       # number of demand (read+write) accesses
system.cpu.icache.overall_accesses::cpu.inst     15658983                       # number of overall (read+write) accesses
system.cpu.icache.overall_accesses::total     15658983                       # number of overall (read+write) accesses
system.cpu.icache.ReadReq_miss_rate::cpu.inst     0.000056                       # miss rate for ReadReq accesses
system.cpu.icache.ReadReq_miss_rate::total     0.000056                       # miss rate for ReadReq accesses
system.cpu.icache.demand_miss_rate::cpu.inst     0.000056                       # miss rate for demand accesses
system.cpu.icache.demand_miss_rate::total     0.000056                       # miss rate for demand accesses
system.cpu.icache.overall_miss_rate::cpu.inst     0.000056                       # miss rate for overall accesses
system.cpu.icache.overall_miss_rate::total     0.000056                       # miss rate for overall accesses
system.cpu.icache.ReadReq_avg_miss_latency::cpu.inst 112463.218391                       # average ReadReq miss latency
system.cpu.icache.ReadReq_avg_miss_latency::total 112463.218391                       # average ReadReq miss latency
system.cpu.icache.demand_avg_miss_latency::cpu.inst 112463.218391                       # average overall miss latency
system.cpu.icache.demand_avg_miss_latency::total 112463.218391                       # average overall miss latency
system.cpu.icache.overall_avg_miss_latency::cpu.inst 112463.218391                       # average overall miss latency
system.cpu.icache.overall_avg_miss_latency::total 112463.218391                       # average overall miss latency
system.cpu.icache.blocked_cycles::no_mshrs            0                       # number of cycles access was blocked
system.cpu.icache.blocked_cycles::no_targets            0                       # number of cycles access was blocked
system.cpu.icache.blocked::no_mshrs                 0                       # number of cycles access was blocked
system.cpu.icache.blocked::no_targets               0                       # number of cycles access was blocked
system.cpu.icache.avg_blocked_cycles::no_mshrs          nan                       # average number of cycles each access was blocked
system.cpu.icache.avg_blocked_cycles::no_targets          nan                       # average number of cycles each access was blocked
system.cpu.icache.ReadReq_mshr_misses::cpu.inst          870                       # number of ReadReq MSHR misses
system.cpu.icache.ReadReq_mshr_misses::total          870                       # number of ReadReq MSHR misses
system.cpu.icache.demand_mshr_misses::cpu.inst          870                       # number of demand (read+write) MSHR misses
system.cpu.icache.demand_mshr_misses::total          870                       # number of demand (read+write) MSHR misses
system.cpu.icache.overall_mshr_misses::cpu.inst          870                       # number of overall MSHR misses
system.cpu.icache.overall_mshr_misses::total          870                       # number of overall MSHR misses
system.cpu.icache.ReadReq_mshr_miss_latency::cpu.inst     96103000                       # number of ReadReq MSHR miss cycles
system.cpu.icache.ReadReq_mshr_miss_latency::total     96103000                       # number of ReadReq MSHR miss cycles
system.cpu.icache.demand_mshr_miss_latency::cpu.inst     96103000                       # number of demand (read+write) MSHR miss cycles
system.cpu.icache.demand_mshr_miss_latency::total     96103000                       # number of demand (read+write) MSHR miss cycles
system.cpu.icache.overall_mshr_miss_latency::cpu.inst     96103000                       # number of overall MSHR miss cycles
system.cpu.icache.overall_mshr_miss_latency::total     96103000                       # number of overall MSHR miss cycles
system.cpu.icache.ReadReq_mshr_miss_rate::cpu.inst     0.000056                       # mshr miss rate for ReadReq accesses
system.cpu.icache.ReadReq_mshr_miss_rate::total     0.000056                       # mshr miss rate for ReadReq accesses
system.cpu.icache.demand_mshr_miss_rate::cpu.inst     0.000056                       # mshr miss rate for demand accesses
system.cpu.icache.demand_mshr_miss_rate::total     0.000056                       # mshr miss rate for demand accesses
system.cpu.icache.overall_mshr_miss_rate::cpu.inst     0.000056                       # mshr miss rate for overall accesses
system.cpu.icache.overall_mshr_miss_rate::total     0.000056                       # mshr miss rate for overall accesses
system.cpu.icache.ReadReq_avg_mshr_miss_latency::cpu.inst 110463.218391                       # average ReadReq mshr miss latency
system.cpu.icache.ReadReq_avg_mshr_miss_latency::total 110463.218391                       # average ReadReq mshr miss latency
system.cpu.icache.demand_avg_mshr_miss_latency::cpu.inst 110463.218391                       # average overall mshr miss latency
system.cpu.icache.demand_avg_mshr_miss_latency::total 110463.218391                       # average overall mshr miss latency
system.cpu.icache.overall_avg_mshr_miss_latency::cpu.inst 110463.218391                       # average overall mshr miss latency
system.cpu.icache.overall_avg_mshr_miss_latency::total 110463.218391                       # average overall mshr miss latency
system.l2bus.snoop_filter.tot_requests          14457                       # Total number of requests made to the snoop filter.
system.l2bus.snoop_filter.hit_single_requests         6373                       # Number of requests hitting in the snoop filter with a single holder of the requested data.
system.l2bus.snoop_filter.hit_multi_requests            4                       # Number of requests hitting in the snoop filter with multiple (>1) holders of the requested data.
system.l2bus.snoop_filter.tot_snoops              387                       # Total number of snoops made to the snoop filter.
system.l2bus.snoop_filter.hit_single_snoops          387                       # Number of snoops hitting in the snoop filter with a single holder of the requested data.
system.l2bus.snoop_filter.hit_multi_snoops            0                       # Number of snoops hitting in the snoop filter with multiple (>1) holders of the requested data.
system.l2bus.pwrStateResidencyTicks::UNDEFINED  38075109000                       # Cumulative time (in ticks) in various power states
system.l2bus.trans_dist::ReadResp                6172                       # Transaction distribution
system.l2bus.trans_dist::WritebackDirty          4180                       # Transaction distribution
system.l2bus.trans_dist::CleanEvict              2837                       # Transaction distribution
system.l2bus.trans_dist::ReadExReq               1912                       # Transaction distribution
system.l2bus.trans_dist::ReadExResp              1912                       # Transaction distribution
system.l2bus.trans_dist::ReadSharedReq           6172                       # Transaction distribution
system.l2bus.pkt_count_system.cpu.icache.mem_side::system.l2cache.cpu_side         1923                       # Packet count per connected master and slave (bytes)
system.l2bus.pkt_count_system.cpu.dcache.mem_side::system.l2cache.cpu_side        20618                       # Packet count per connected master and slave (bytes)
system.l2bus.pkt_count::total                   22541                       # Packet count per connected master and slave (bytes)
system.l2bus.pkt_size_system.cpu.icache.mem_side::system.l2cache.cpu_side        55680                       # Cumulative packet size per connected master and slave (bytes)
system.l2bus.pkt_size_system.cpu.dcache.mem_side::system.l2cache.cpu_side       723648                       # Cumulative packet size per connected master and slave (bytes)
system.l2bus.pkt_size::total                   779328                       # Cumulative packet size per connected master and slave (bytes)
system.l2bus.snoops                               644                       # Total snoops (count)
system.l2bus.snoopTraffic                        5568                       # Total snoop traffic (bytes)
system.l2bus.snoop_fanout::samples               8728                       # Request fanout histogram
system.l2bus.snoop_fanout::mean              0.044798                       # Request fanout histogram
system.l2bus.snoop_fanout::stdev             0.206873                       # Request fanout histogram
system.l2bus.snoop_fanout::underflows               0      0.00%      0.00% # Request fanout histogram
system.l2bus.snoop_fanout::0                     8337     95.52%     95.52% # Request fanout histogram
system.l2bus.snoop_fanout::1                      391      4.48%    100.00% # Request fanout histogram
system.l2bus.snoop_fanout::2                        0      0.00%    100.00% # Request fanout histogram
system.l2bus.snoop_fanout::overflows                0      0.00%    100.00% # Request fanout histogram
system.l2bus.snoop_fanout::min_value                0                       # Request fanout histogram
system.l2bus.snoop_fanout::max_value                1                       # Request fanout histogram
system.l2bus.snoop_fanout::total                 8728                       # Request fanout histogram
system.l2bus.reqLayer0.occupancy             22643000                       # Layer occupancy (ticks)
system.l2bus.reqLayer0.utilization                0.1                       # Layer utilization (%)
system.l2bus.respLayer0.occupancy             2610000                       # Layer occupancy (ticks)
system.l2bus.respLayer0.utilization               0.0                       # Layer utilization (%)
system.l2bus.respLayer1.occupancy            21642000                       # Layer occupancy (ticks)
system.l2bus.respLayer1.utilization               0.1                       # Layer utilization (%)
system.l2cache.tags.pwrStateResidencyTicks::UNDEFINED  38075109000                       # Cumulative time (in ticks) in various power states
system.l2cache.tags.replacements                  644                       # number of replacements
system.l2cache.tags.tagsinuse             3589.305425                       # Cycle average of tags in use
system.l2cache.tags.total_refs                   9777                       # Total number of references to valid blocks.
system.l2cache.tags.sampled_refs                 4566                       # Sample count of references to valid blocks.
system.l2cache.tags.avg_refs                 2.141261                       # Average number of references to valid blocks.
system.l2cache.tags.warmup_cycle                    0                       # Cycle when the warmup percentage was hit.
system.l2cache.tags.occ_blocks::writebacks     6.361255                       # Average occupied blocks per requestor
system.l2cache.tags.occ_blocks::cpu.inst   499.144715                       # Average occupied blocks per requestor
system.l2cache.tags.occ_blocks::cpu.data  3083.799455                       # Average occupied blocks per requestor
system.l2cache.tags.occ_percent::writebacks     0.001553                       # Average percentage of cache occupancy
system.l2cache.tags.occ_percent::cpu.inst     0.121862                       # Average percentage of cache occupancy
system.l2cache.tags.occ_percent::cpu.data     0.752881                       # Average percentage of cache occupancy
system.l2cache.tags.occ_percent::total       0.876295                       # Average percentage of cache occupancy
system.l2cache.tags.occ_task_id_blocks::1024         3922                       # Occupied blocks per task id
system.l2cache.tags.age_task_id_blocks_1024::0           56                       # Occupied blocks per task id
system.l2cache.tags.age_task_id_blocks_1024::1            1                       # Occupied blocks per task id
system.l2cache.tags.age_task_id_blocks_1024::4         3865                       # Occupied blocks per task id
system.l2cache.tags.occ_task_id_percent::1024     0.957520                       # Percentage of cache occupancy per task id
system.l2cache.tags.tag_accesses               120190                       # Number of tag accesses
system.l2cache.tags.data_accesses              120190                       # Number of data accesses
system.l2cache.pwrStateResidencyTicks::UNDEFINED  38075109000                       # Cumulative time (in ticks) in various power states
system.l2cache.WritebackDirty_hits::writebacks         4093                       # number of WritebackDirty hits
system.l2cache.WritebackDirty_hits::total         4093                       # number of WritebackDirty hits
system.l2cache.ReadExReq_hits::cpu.data           108                       # number of ReadExReq hits
system.l2cache.ReadExReq_hits::total              108                       # number of ReadExReq hits
system.l2cache.ReadSharedReq_hits::cpu.inst            4                       # number of ReadSharedReq hits
system.l2cache.ReadSharedReq_hits::cpu.data         3414                       # number of ReadSharedReq hits
system.l2cache.ReadSharedReq_hits::total         3418                       # number of ReadSharedReq hits
system.l2cache.demand_hits::cpu.inst                4                       # number of demand (read+write) hits
system.l2cache.demand_hits::cpu.data             3522                       # number of demand (read+write) hits
system.l2cache.demand_hits::total                3526                       # number of demand (read+write) hits
system.l2cache.overall_hits::cpu.inst               4                       # number of overall hits
system.l2cache.overall_hits::cpu.data            3522                       # number of overall hits
system.l2cache.overall_hits::total               3526                       # number of overall hits
system.l2cache.ReadExReq_misses::cpu.data         1804                       # number of ReadExReq misses
system.l2cache.ReadExReq_misses::total           1804                       # number of ReadExReq misses
system.l2cache.ReadSharedReq_misses::cpu.inst          866                       # number of ReadSharedReq misses
system.l2cache.ReadSharedReq_misses::cpu.data         1888                       # number of ReadSharedReq misses
system.l2cache.ReadSharedReq_misses::total         2754                       # number of ReadSharedReq misses
system.l2cache.demand_misses::cpu.inst            866                       # number of demand (read+write) misses
system.l2cache.demand_misses::cpu.data           3692                       # number of demand (read+write) misses
system.l2cache.demand_misses::total              4558                       # number of demand (read+write) misses
system.l2cache.overall_misses::cpu.inst           866                       # number of overall misses
system.l2cache.overall_misses::cpu.data          3692                       # number of overall misses
system.l2cache.overall_misses::total             4558                       # number of overall misses
system.l2cache.ReadExReq_miss_latency::cpu.data    187079000                       # number of ReadExReq miss cycles
system.l2cache.ReadExReq_miss_latency::total    187079000                       # number of ReadExReq miss cycles
system.l2cache.ReadSharedReq_miss_latency::cpu.inst     93403000                       # number of ReadSharedReq miss cycles
system.l2cache.ReadSharedReq_miss_latency::cpu.data    197850000                       # number of ReadSharedReq miss cycles
system.l2cache.ReadSharedReq_miss_latency::total    291253000                       # number of ReadSharedReq miss cycles
system.l2cache.demand_miss_latency::cpu.inst     93403000                       # number of demand (read+write) miss cycles
system.l2cache.demand_miss_latency::cpu.data    384929000                       # number of demand (read+write) miss cycles
system.l2cache.demand_miss_latency::total    478332000                       # number of demand (read+write) miss cycles
system.l2cache.overall_miss_latency::cpu.inst     93403000                       # number of overall miss cycles
system.l2cache.overall_miss_latency::cpu.data    384929000                       # number of overall miss cycles
system.l2cache.overall_miss_latency::total    478332000                       # number of overall miss cycles
system.l2cache.WritebackDirty_accesses::writebacks         4093                       # number of WritebackDirty accesses(hits+misses)
system.l2cache.WritebackDirty_accesses::total         4093                       # number of WritebackDirty accesses(hits+misses)
system.l2cache.ReadExReq_accesses::cpu.data         1912                       # number of ReadExReq accesses(hits+misses)
system.l2cache.ReadExReq_accesses::total         1912                       # number of ReadExReq accesses(hits+misses)
system.l2cache.ReadSharedReq_accesses::cpu.inst          870                       # number of ReadSharedReq accesses(hits+misses)
system.l2cache.ReadSharedReq_accesses::cpu.data         5302                       # number of ReadSharedReq accesses(hits+misses)
system.l2cache.ReadSharedReq_accesses::total         6172                       # number of ReadSharedReq accesses(hits+misses)
system.l2cache.demand_accesses::cpu.inst          870                       # number of demand (read+write) accesses
system.l2cache.demand_accesses::cpu.data         7214                       # number of demand (read+write) accesses
system.l2cache.demand_accesses::total            8084                       # number of demand (read+write) accesses
system.l2cache.overall_accesses::cpu.inst          870                       # number of overall (read+write) accesses
system.l2cache.overall_accesses::cpu.data         7214                       # number of overall (read+write) accesses
system.l2cache.overall_accesses::total           8084                       # number of overall (read+write) accesses
system.l2cache.ReadExReq_miss_rate::cpu.data     0.943515                       # miss rate for ReadExReq accesses
system.l2cache.ReadExReq_miss_rate::total     0.943515                       # miss rate for ReadExReq accesses
system.l2cache.ReadSharedReq_miss_rate::cpu.inst     0.995402                       # miss rate for ReadSharedReq accesses
system.l2cache.ReadSharedReq_miss_rate::cpu.data     0.356092                       # miss rate for ReadSharedReq accesses
system.l2cache.ReadSharedReq_miss_rate::total     0.446209                       # miss rate for ReadSharedReq accesses
system.l2cache.demand_miss_rate::cpu.inst     0.995402                       # miss rate for demand accesses
system.l2cache.demand_miss_rate::cpu.data     0.511783                       # miss rate for demand accesses
system.l2cache.demand_miss_rate::total       0.563830                       # miss rate for demand accesses
system.l2cache.overall_miss_rate::cpu.inst     0.995402                       # miss rate for overall accesses
system.l2cache.overall_miss_rate::cpu.data     0.511783                       # miss rate for overall accesses
system.l2cache.overall_miss_rate::total      0.563830                       # miss rate for overall accesses
system.l2cache.ReadExReq_avg_miss_latency::cpu.data 103702.328160                       # average ReadExReq miss latency
system.l2cache.ReadExReq_avg_miss_latency::total 103702.328160                       # average ReadExReq miss latency
system.l2cache.ReadSharedReq_avg_miss_latency::cpu.inst 107855.658199                       # average ReadSharedReq miss latency
system.l2cache.ReadSharedReq_avg_miss_latency::cpu.data 104793.432203                       # average ReadSharedReq miss latency
system.l2cache.ReadSharedReq_avg_miss_latency::total 105756.354394                       # average ReadSharedReq miss latency
system.l2cache.demand_avg_miss_latency::cpu.inst 107855.658199                       # average overall miss latency
system.l2cache.demand_avg_miss_latency::cpu.data 104260.292524                       # average overall miss latency
system.l2cache.demand_avg_miss_latency::total 104943.396226                       # average overall miss latency
system.l2cache.overall_avg_miss_latency::cpu.inst 107855.658199                       # average overall miss latency
system.l2cache.overall_avg_miss_latency::cpu.data 104260.292524                       # average overall miss latency
system.l2cache.overall_avg_miss_latency::total 104943.396226                       # average overall miss latency
system.l2cache.blocked_cycles::no_mshrs             0                       # number of cycles access was blocked
system.l2cache.blocked_cycles::no_targets            0                       # number of cycles access was blocked
system.l2cache.blocked::no_mshrs                    0                       # number of cycles access was blocked
system.l2cache.blocked::no_targets                  0                       # number of cycles access was blocked
system.l2cache.avg_blocked_cycles::no_mshrs          nan                       # average number of cycles each access was blocked
system.l2cache.avg_blocked_cycles::no_targets          nan                       # average number of cycles each access was blocked
system.l2cache.writebacks::writebacks              87                       # number of writebacks
system.l2cache.writebacks::total                   87                       # number of writebacks
system.l2cache.CleanEvict_mshr_misses::writebacks          110                       # number of CleanEvict MSHR misses
system.l2cache.CleanEvict_mshr_misses::total          110                       # number of CleanEvict MSHR misses
system.l2cache.ReadExReq_mshr_misses::cpu.data         1804                       # number of ReadExReq MSHR misses
system.l2cache.ReadExReq_mshr_misses::total         1804                       # number of ReadExReq MSHR misses
system.l2cache.ReadSharedReq_mshr_misses::cpu.inst          866                       # number of ReadSharedReq MSHR misses
system.l2cache.ReadSharedReq_mshr_misses::cpu.data         1888                       # number of ReadSharedReq MSHR misses
system.l2cache.ReadSharedReq_mshr_misses::total         2754                       # number of ReadSharedReq MSHR misses
system.l2cache.demand_mshr_misses::cpu.inst          866                       # number of demand (read+write) MSHR misses
system.l2cache.demand_mshr_misses::cpu.data         3692                       # number of demand (read+write) MSHR misses
system.l2cache.demand_mshr_misses::total         4558                       # number of demand (read+write) MSHR misses
system.l2cache.overall_mshr_misses::cpu.inst          866                       # number of overall MSHR misses
system.l2cache.overall_mshr_misses::cpu.data         3692                       # number of overall MSHR misses
system.l2cache.overall_mshr_misses::total         4558                       # number of overall MSHR misses
system.l2cache.ReadExReq_mshr_miss_latency::cpu.data    150999000                       # number of ReadExReq MSHR miss cycles
system.l2cache.ReadExReq_mshr_miss_latency::total    150999000                       # number of ReadExReq MSHR miss cycles
system.l2cache.ReadSharedReq_mshr_miss_latency::cpu.inst     76083000                       # number of ReadSharedReq MSHR miss cycles
system.l2cache.ReadSharedReq_mshr_miss_latency::cpu.data    160090000                       # number of ReadSharedReq MSHR miss cycles
system.l2cache.ReadSharedReq_mshr_miss_latency::total    236173000                       # number of ReadSharedReq MSHR miss cycles
system.l2cache.demand_mshr_miss_latency::cpu.inst     76083000                       # number of demand (read+write) MSHR miss cycles
system.l2cache.demand_mshr_miss_latency::cpu.data    311089000                       # number of demand (read+write) MSHR miss cycles
system.l2cache.demand_mshr_miss_latency::total    387172000                       # number of demand (read+write) MSHR miss cycles
system.l2cache.overall_mshr_miss_latency::cpu.inst     76083000                       # number of overall MSHR miss cycles
system.l2cache.overall_mshr_miss_latency::cpu.data    311089000                       # number of overall MSHR miss cycles
system.l2cache.overall_mshr_miss_latency::total    387172000                       # number of overall MSHR miss cycles
system.l2cache.CleanEvict_mshr_miss_rate::writebacks          inf                       # mshr miss rate for CleanEvict accesses
system.l2cache.CleanEvict_mshr_miss_rate::total          inf                       # mshr miss rate for CleanEvict accesses
system.l2cache.ReadExReq_mshr_miss_rate::cpu.data     0.943515                       # mshr miss rate for ReadExReq accesses
system.l2cache.ReadExReq_mshr_miss_rate::total     0.943515                       # mshr miss rate for ReadExReq accesses
system.l2cache.ReadSharedReq_mshr_miss_rate::cpu.inst     0.995402                       # mshr miss rate for ReadSharedReq accesses
system.l2cache.ReadSharedReq_mshr_miss_rate::cpu.data     0.356092                       # mshr miss rate for ReadSharedReq accesses
system.l2cache.ReadSharedReq_mshr_miss_rate::total     0.446209                       # mshr miss rate for ReadSharedReq accesses
system.l2cache.demand_mshr_miss_rate::cpu.inst     0.995402                       # mshr miss rate for demand accesses
system.l2cache.demand_mshr_miss_rate::cpu.data     0.511783                       # mshr miss rate for demand accesses
system.l2cache.demand_mshr_miss_rate::total     0.563830                       # mshr miss rate for demand accesses
system.l2cache.overall_mshr_miss_rate::cpu.inst     0.995402                       # mshr miss rate for overall accesses
system.l2cache.overall_mshr_miss_rate::cpu.data     0.511783                       # mshr miss rate for overall accesses
system.l2cache.overall_mshr_miss_rate::total     0.563830                       # mshr miss rate for overall accesses
system.l2cache.ReadExReq_avg_mshr_miss_latency::cpu.data 83702.328160                       # average ReadExReq mshr miss latency
system.l2cache.ReadExReq_avg_mshr_miss_latency::total 83702.328160                       # average ReadExReq mshr miss latency
system.l2cache.ReadSharedReq_avg_mshr_miss_latency::cpu.inst 87855.658199                       # average ReadSharedReq mshr miss latency
system.l2cache.ReadSharedReq_avg_mshr_miss_latency::cpu.data 84793.432203                       # average ReadSharedReq mshr miss latency
system.l2cache.ReadSharedReq_avg_mshr_miss_latency::total 85756.354394                       # average ReadSharedReq mshr miss latency
system.l2cache.demand_avg_mshr_miss_latency::cpu.inst 87855.658199                       # average overall mshr miss latency
system.l2cache.demand_avg_mshr_miss_latency::cpu.data 84260.292524                       # average overall mshr miss latency
system.l2cache.demand_avg_mshr_miss_latency::total 84943.396226                       # average overall mshr miss latency
system.l2cache.overall_avg_mshr_miss_latency::cpu.inst 87855.658199                       # average overall mshr miss latency
system.l2cache.overall_avg_mshr_miss_latency::cpu.data 84260.292524                       # average overall mshr miss latency
system.l2cache.overall_avg_mshr_miss_latency::total 84943.396226                       # average overall mshr miss latency
system.membus.snoop_filter.tot_requests          4924                       # Total number of requests made to the snoop filter.
system.membus.snoop_filter.hit_single_requests          366                       # Number of requests hitting in the snoop filter with a single holder of the requested data.
system.membus.snoop_filter.hit_multi_requests            0                       # Number of requests hitting in the snoop filter with multiple (>1) holders of the requested data.
system.membus.snoop_filter.tot_snoops               0                       # Total number of snoops made to the snoop filter.
system.membus.snoop_filter.hit_single_snoops            0                       # Number of snoops hitting in the snoop filter with a single holder of the requested data.
system.membus.snoop_filter.hit_multi_snoops            0                       # Number of snoops hitting in the snoop filter with multiple (>1) holders of the requested data.
system.membus.pwrStateResidencyTicks::UNDEFINED  38075109000                       # Cumulative time (in ticks) in various power states
system.membus.trans_dist::ReadResp               2754                       # Transaction distribution
system.membus.trans_dist::WritebackDirty           87                       # Transaction distribution
system.membus.trans_dist::CleanEvict              279                       # Transaction distribution
system.membus.trans_dist::ReadExReq              1804                       # Transaction distribution
system.membus.trans_dist::ReadExResp             1804                       # Transaction distribution
system.membus.trans_dist::ReadSharedReq          2754                       # Transaction distribution
system.membus.pkt_count_system.l2cache.mem_side::system.mem_ctrl.port         9482                       # Packet count per connected master and slave (bytes)
system.membus.pkt_count_system.l2cache.mem_side::total         9482                       # Packet count per connected master and slave (bytes)
system.membus.pkt_count::total                   9482                       # Packet count per connected master and slave (bytes)
system.membus.pkt_size_system.l2cache.mem_side::system.mem_ctrl.port       297280                       # Cumulative packet size per connected master and slave (bytes)
system.membus.pkt_size_system.l2cache.mem_side::total       297280                       # Cumulative packet size per connected master and slave (bytes)
system.membus.pkt_size::total                  297280                       # Cumulative packet size per connected master and slave (bytes)
system.membus.snoops                                0                       # Total snoops (count)
system.membus.snoopTraffic                          0                       # Total snoop traffic (bytes)
system.membus.snoop_fanout::samples              4558                       # Request fanout histogram
system.membus.snoop_fanout::mean                    0                       # Request fanout histogram
system.membus.snoop_fanout::stdev                   0                       # Request fanout histogram
system.membus.snoop_fanout::underflows              0      0.00%      0.00% # Request fanout histogram
system.membus.snoop_fanout::0                    4558    100.00%    100.00% # Request fanout histogram
system.membus.snoop_fanout::1                       0      0.00%    100.00% # Request fanout histogram
system.membus.snoop_fanout::overflows               0      0.00%    100.00% # Request fanout histogram
system.membus.snoop_fanout::min_value               0                       # Request fanout histogram
system.membus.snoop_fanout::max_value               0                       # Request fanout histogram
system.membus.snoop_fanout::total                4558                       # Request fanout histogram
system.membus.reqLayer2.occupancy             5272000                       # Layer occupancy (ticks)
system.membus.reqLayer2.utilization               0.0                       # Layer utilization (%)
system.membus.respLayer0.occupancy           24262000                       # Layer occupancy (ticks)
system.membus.respLayer0.utilization              0.1                       # Layer utilization (%)

---------- End Simulation Statistics   ----------
