
---------- Begin Simulation Statistics ----------
sim_seconds                                  0.000968                       # Number of seconds simulated
sim_ticks                                   967592000                       # Number of ticks simulated
final_tick                                  967592000                       # Number of ticks from beginning of simulation (restored from checkpoints and never reset)
sim_freq                                 1000000000000                       # Frequency of simulated ticks
host_inst_rate                                 976502                       # Simulator instruction rate (inst/s)
host_op_rate                                  1863690                       # Simulator op (including micro ops) rate (op/s)
host_tick_rate                             5350274638                       # Simulator tick rate (ticks/s)
host_mem_usage                                 672420                       # Number of bytes of host memory used
host_seconds                                     0.18                       # Real time elapsed on the host
sim_insts                                      176585                       # Number of instructions simulated
sim_ops                                        337034                       # Number of ops (including micro ops) simulated
system.clk_domain.voltage_domain.voltage            1                       # Voltage in Volts
system.clk_domain.clock                          1000                       # Clock period in ticks
system.mem_ctrl.pwrStateResidencyTicks::UNDEFINED    967592000                       # Cumulative time (in ticks) in various power states
system.mem_ctrl.bytes_read::cpu.inst            62464                       # Number of bytes read from this memory
system.mem_ctrl.bytes_read::cpu.data           156416                       # Number of bytes read from this memory
system.mem_ctrl.bytes_read::total              218880                       # Number of bytes read from this memory
system.mem_ctrl.bytes_inst_read::cpu.inst        62464                       # Number of instructions bytes read from this memory
system.mem_ctrl.bytes_inst_read::total          62464                       # Number of instructions bytes read from this memory
system.mem_ctrl.bytes_written::writebacks        10368                       # Number of bytes written to this memory
system.mem_ctrl.bytes_written::total            10368                       # Number of bytes written to this memory
system.mem_ctrl.num_reads::cpu.inst               976                       # Number of read requests responded to by this memory
system.mem_ctrl.num_reads::cpu.data              2444                       # Number of read requests responded to by this memory
system.mem_ctrl.num_reads::total                 3420                       # Number of read requests responded to by this memory
system.mem_ctrl.num_writes::writebacks            162                       # Number of write requests responded to by this memory
system.mem_ctrl.num_writes::total                 162                       # Number of write requests responded to by this memory
system.mem_ctrl.bw_read::cpu.inst            64556135                       # Total read bandwidth from this memory (bytes/s)
system.mem_ctrl.bw_read::cpu.data           161654912                       # Total read bandwidth from this memory (bytes/s)
system.mem_ctrl.bw_read::total              226211048                       # Total read bandwidth from this memory (bytes/s)
system.mem_ctrl.bw_inst_read::cpu.inst       64556135                       # Instruction read bandwidth from this memory (bytes/s)
system.mem_ctrl.bw_inst_read::total          64556135                       # Instruction read bandwidth from this memory (bytes/s)
system.mem_ctrl.bw_write::writebacks         10715260                       # Write bandwidth from this memory (bytes/s)
system.mem_ctrl.bw_write::total              10715260                       # Write bandwidth from this memory (bytes/s)
system.mem_ctrl.bw_total::writebacks         10715260                       # Total bandwidth to/from this memory (bytes/s)
system.mem_ctrl.bw_total::cpu.inst           64556135                       # Total bandwidth to/from this memory (bytes/s)
system.mem_ctrl.bw_total::cpu.data          161654912                       # Total bandwidth to/from this memory (bytes/s)
system.mem_ctrl.bw_total::total             236926308                       # Total bandwidth to/from this memory (bytes/s)
system.mem_ctrl.readReqs                         3420                       # Number of read requests accepted
system.mem_ctrl.writeReqs                         162                       # Number of write requests accepted
system.mem_ctrl.readBursts                       3420                       # Number of DRAM read bursts, including those serviced by the write queue
system.mem_ctrl.writeBursts                       162                       # Number of DRAM write bursts, including those merged in the write queue
system.mem_ctrl.bytesReadDRAM                  218368                       # Total number of bytes read from DRAM
system.mem_ctrl.bytesReadWrQ                      512                       # Total number of bytes read from write queue
system.mem_ctrl.bytesWritten                     9024                       # Total number of bytes written to DRAM
system.mem_ctrl.bytesReadSys                   218880                       # Total read bytes from the system interface side
system.mem_ctrl.bytesWrittenSys                 10368                       # Total written bytes from the system interface side
system.mem_ctrl.servicedByWrQ                       8                       # Number of DRAM read bursts serviced by the write queue
system.mem_ctrl.mergedWrBursts                      0                       # Number of DRAM write bursts merged with an existing one
system.mem_ctrl.neitherReadNorWriteReqs             0                       # Number of requests that are neither read nor write
system.mem_ctrl.perBankRdBursts::0                180                       # Per bank write bursts
system.mem_ctrl.perBankRdBursts::1                144                       # Per bank write bursts
system.mem_ctrl.perBankRdBursts::2                215                       # Per bank write bursts
system.mem_ctrl.perBankRdBursts::3                287                       # Per bank write bursts
system.mem_ctrl.perBankRdBursts::4                227                       # Per bank write bursts
system.mem_ctrl.perBankRdBursts::5                192                       # Per bank write bursts
system.mem_ctrl.perBankRdBursts::6                329                       # Per bank write bursts
system.mem_ctrl.perBankRdBursts::7                191                       # Per bank write bursts
system.mem_ctrl.perBankRdBursts::8                235                       # Per bank write bursts
system.mem_ctrl.perBankRdBursts::9                175                       # Per bank write bursts
system.mem_ctrl.perBankRdBursts::10               219                       # Per bank write bursts
system.mem_ctrl.perBankRdBursts::11               280                       # Per bank write bursts
system.mem_ctrl.perBankRdBursts::12               295                       # Per bank write bursts
system.mem_ctrl.perBankRdBursts::13               235                       # Per bank write bursts
system.mem_ctrl.perBankRdBursts::14               133                       # Per bank write bursts
system.mem_ctrl.perBankRdBursts::15                75                       # Per bank write bursts
system.mem_ctrl.perBankWrBursts::0                 26                       # Per bank write bursts
system.mem_ctrl.perBankWrBursts::1                  0                       # Per bank write bursts
system.mem_ctrl.perBankWrBursts::2                  0                       # Per bank write bursts
system.mem_ctrl.perBankWrBursts::3                  0                       # Per bank write bursts
system.mem_ctrl.perBankWrBursts::4                  0                       # Per bank write bursts
system.mem_ctrl.perBankWrBursts::5                  2                       # Per bank write bursts
system.mem_ctrl.perBankWrBursts::6                 10                       # Per bank write bursts
system.mem_ctrl.perBankWrBursts::7                  4                       # Per bank write bursts
system.mem_ctrl.perBankWrBursts::8                 11                       # Per bank write bursts
system.mem_ctrl.perBankWrBursts::9                  0                       # Per bank write bursts
system.mem_ctrl.perBankWrBursts::10                22                       # Per bank write bursts
system.mem_ctrl.perBankWrBursts::11                30                       # Per bank write bursts
system.mem_ctrl.perBankWrBursts::12                15                       # Per bank write bursts
system.mem_ctrl.perBankWrBursts::13                21                       # Per bank write bursts
system.mem_ctrl.perBankWrBursts::14                 0                       # Per bank write bursts
system.mem_ctrl.perBankWrBursts::15                 0                       # Per bank write bursts
system.mem_ctrl.numRdRetry                          0                       # Number of times read queue was full causing retry
system.mem_ctrl.numWrRetry                          0                       # Number of times write queue was full causing retry
system.mem_ctrl.totGap                      967487000                       # Total gap between requests
system.mem_ctrl.readPktSize::0                      0                       # Read request sizes (log2)
system.mem_ctrl.readPktSize::1                      0                       # Read request sizes (log2)
system.mem_ctrl.readPktSize::2                      0                       # Read request sizes (log2)
system.mem_ctrl.readPktSize::3                      0                       # Read request sizes (log2)
system.mem_ctrl.readPktSize::4                      0                       # Read request sizes (log2)
system.mem_ctrl.readPktSize::5                      0                       # Read request sizes (log2)
system.mem_ctrl.readPktSize::6                   3420                       # Read request sizes (log2)
system.mem_ctrl.writePktSize::0                     0                       # Write request sizes (log2)
system.mem_ctrl.writePktSize::1                     0                       # Write request sizes (log2)
system.mem_ctrl.writePktSize::2                     0                       # Write request sizes (log2)
system.mem_ctrl.writePktSize::3                     0                       # Write request sizes (log2)
system.mem_ctrl.writePktSize::4                     0                       # Write request sizes (log2)
system.mem_ctrl.writePktSize::5                     0                       # Write request sizes (log2)
system.mem_ctrl.writePktSize::6                   162                       # Write request sizes (log2)
system.mem_ctrl.rdQLenPdf::0                     3412                       # What read queue length does an incoming req see
system.mem_ctrl.rdQLenPdf::1                        0                       # What read queue length does an incoming req see
system.mem_ctrl.rdQLenPdf::2                        0                       # What read queue length does an incoming req see
system.mem_ctrl.rdQLenPdf::3                        0                       # What read queue length does an incoming req see
system.mem_ctrl.rdQLenPdf::4                        0                       # What read queue length does an incoming req see
system.mem_ctrl.rdQLenPdf::5                        0                       # What read queue length does an incoming req see
system.mem_ctrl.rdQLenPdf::6                        0                       # What read queue length does an incoming req see
system.mem_ctrl.rdQLenPdf::7                        0                       # What read queue length does an incoming req see
system.mem_ctrl.rdQLenPdf::8                        0                       # What read queue length does an incoming req see
system.mem_ctrl.rdQLenPdf::9                        0                       # What read queue length does an incoming req see
system.mem_ctrl.rdQLenPdf::10                       0                       # What read queue length does an incoming req see
system.mem_ctrl.rdQLenPdf::11                       0                       # What read queue length does an incoming req see
system.mem_ctrl.rdQLenPdf::12                       0                       # What read queue length does an incoming req see
system.mem_ctrl.rdQLenPdf::13                       0                       # What read queue length does an incoming req see
system.mem_ctrl.rdQLenPdf::14                       0                       # What read queue length does an incoming req see
system.mem_ctrl.rdQLenPdf::15                       0                       # What read queue length does an incoming req see
system.mem_ctrl.rdQLenPdf::16                       0                       # What read queue length does an incoming req see
system.mem_ctrl.rdQLenPdf::17                       0                       # What read queue length does an incoming req see
system.mem_ctrl.rdQLenPdf::18                       0                       # What read queue length does an incoming req see
system.mem_ctrl.rdQLenPdf::19                       0                       # What read queue length does an incoming req see
system.mem_ctrl.rdQLenPdf::20                       0                       # What read queue length does an incoming req see
system.mem_ctrl.rdQLenPdf::21                       0                       # What read queue length does an incoming req see
system.mem_ctrl.rdQLenPdf::22                       0                       # What read queue length does an incoming req see
system.mem_ctrl.rdQLenPdf::23                       0                       # What read queue length does an incoming req see
system.mem_ctrl.rdQLenPdf::24                       0                       # What read queue length does an incoming req see
system.mem_ctrl.rdQLenPdf::25                       0                       # What read queue length does an incoming req see
system.mem_ctrl.rdQLenPdf::26                       0                       # What read queue length does an incoming req see
system.mem_ctrl.rdQLenPdf::27                       0                       # What read queue length does an incoming req see
system.mem_ctrl.rdQLenPdf::28                       0                       # What read queue length does an incoming req see
system.mem_ctrl.rdQLenPdf::29                       0                       # What read queue length does an incoming req see
system.mem_ctrl.rdQLenPdf::30                       0                       # What read queue length does an incoming req see
system.mem_ctrl.rdQLenPdf::31                       0                       # What read queue length does an incoming req see
system.mem_ctrl.wrQLenPdf::0                        1                       # What write queue length does an incoming req see
system.mem_ctrl.wrQLenPdf::1                        1                       # What write queue length does an incoming req see
system.mem_ctrl.wrQLenPdf::2                        1                       # What write queue length does an incoming req see
system.mem_ctrl.wrQLenPdf::3                        1                       # What write queue length does an incoming req see
system.mem_ctrl.wrQLenPdf::4                        1                       # What write queue length does an incoming req see
system.mem_ctrl.wrQLenPdf::5                        1                       # What write queue length does an incoming req see
system.mem_ctrl.wrQLenPdf::6                        1                       # What write queue length does an incoming req see
system.mem_ctrl.wrQLenPdf::7                        1                       # What write queue length does an incoming req see
system.mem_ctrl.wrQLenPdf::8                        1                       # What write queue length does an incoming req see
system.mem_ctrl.wrQLenPdf::9                        1                       # What write queue length does an incoming req see
system.mem_ctrl.wrQLenPdf::10                       1                       # What write queue length does an incoming req see
system.mem_ctrl.wrQLenPdf::11                       1                       # What write queue length does an incoming req see
system.mem_ctrl.wrQLenPdf::12                       1                       # What write queue length does an incoming req see
system.mem_ctrl.wrQLenPdf::13                       1                       # What write queue length does an incoming req see
system.mem_ctrl.wrQLenPdf::14                       1                       # What write queue length does an incoming req see
system.mem_ctrl.wrQLenPdf::15                       7                       # What write queue length does an incoming req see
system.mem_ctrl.wrQLenPdf::16                       8                       # What write queue length does an incoming req see
system.mem_ctrl.wrQLenPdf::17                       9                       # What write queue length does an incoming req see
system.mem_ctrl.wrQLenPdf::18                       9                       # What write queue length does an incoming req see
system.mem_ctrl.wrQLenPdf::19                       9                       # What write queue length does an incoming req see
system.mem_ctrl.wrQLenPdf::20                       9                       # What write queue length does an incoming req see
system.mem_ctrl.wrQLenPdf::21                       8                       # What write queue length does an incoming req see
system.mem_ctrl.wrQLenPdf::22                       8                       # What write queue length does an incoming req see
system.mem_ctrl.wrQLenPdf::23                       8                       # What write queue length does an incoming req see
system.mem_ctrl.wrQLenPdf::24                       8                       # What write queue length does an incoming req see
system.mem_ctrl.wrQLenPdf::25                       8                       # What write queue length does an incoming req see
system.mem_ctrl.wrQLenPdf::26                       8                       # What write queue length does an incoming req see
system.mem_ctrl.wrQLenPdf::27                       8                       # What write queue length does an incoming req see
system.mem_ctrl.wrQLenPdf::28                       8                       # What write queue length does an incoming req see
system.mem_ctrl.wrQLenPdf::29                       8                       # What write queue length does an incoming req see
system.mem_ctrl.wrQLenPdf::30                       8                       # What write queue length does an incoming req see
system.mem_ctrl.wrQLenPdf::31                       8                       # What write queue length does an incoming req see
system.mem_ctrl.wrQLenPdf::32                       8                       # What write queue length does an incoming req see
system.mem_ctrl.wrQLenPdf::33                       0                       # What write queue length does an incoming req see
system.mem_ctrl.wrQLenPdf::34                       0                       # What write queue length does an incoming req see
system.mem_ctrl.wrQLenPdf::35                       0                       # What write queue length does an incoming req see
system.mem_ctrl.wrQLenPdf::36                       0                       # What write queue length does an incoming req see
system.mem_ctrl.wrQLenPdf::37                       0                       # What write queue length does an incoming req see
system.mem_ctrl.wrQLenPdf::38                       0                       # What write queue length does an incoming req see
system.mem_ctrl.wrQLenPdf::39                       0                       # What write queue length does an incoming req see
system.mem_ctrl.wrQLenPdf::40                       0                       # What write queue length does an incoming req see
system.mem_ctrl.wrQLenPdf::41                       0                       # What write queue length does an incoming req see
system.mem_ctrl.wrQLenPdf::42                       0                       # What write queue length does an incoming req see
system.mem_ctrl.wrQLenPdf::43                       0                       # What write queue length does an incoming req see
system.mem_ctrl.wrQLenPdf::44                       0                       # What write queue length does an incoming req see
system.mem_ctrl.wrQLenPdf::45                       0                       # What write queue length does an incoming req see
system.mem_ctrl.wrQLenPdf::46                       0                       # What write queue length does an incoming req see
system.mem_ctrl.wrQLenPdf::47                       0                       # What write queue length does an incoming req see
system.mem_ctrl.wrQLenPdf::48                       0                       # What write queue length does an incoming req see
system.mem_ctrl.wrQLenPdf::49                       0                       # What write queue length does an incoming req see
system.mem_ctrl.wrQLenPdf::50                       0                       # What write queue length does an incoming req see
system.mem_ctrl.wrQLenPdf::51                       0                       # What write queue length does an incoming req see
system.mem_ctrl.wrQLenPdf::52                       0                       # What write queue length does an incoming req see
system.mem_ctrl.wrQLenPdf::53                       0                       # What write queue length does an incoming req see
system.mem_ctrl.wrQLenPdf::54                       0                       # What write queue length does an incoming req see
system.mem_ctrl.wrQLenPdf::55                       0                       # What write queue length does an incoming req see
system.mem_ctrl.wrQLenPdf::56                       0                       # What write queue length does an incoming req see
system.mem_ctrl.wrQLenPdf::57                       0                       # What write queue length does an incoming req see
system.mem_ctrl.wrQLenPdf::58                       0                       # What write queue length does an incoming req see
system.mem_ctrl.wrQLenPdf::59                       0                       # What write queue length does an incoming req see
system.mem_ctrl.wrQLenPdf::60                       0                       # What write queue length does an incoming req see
system.mem_ctrl.wrQLenPdf::61                       0                       # What write queue length does an incoming req see
system.mem_ctrl.wrQLenPdf::62                       0                       # What write queue length does an incoming req see
system.mem_ctrl.wrQLenPdf::63                       0                       # What write queue length does an incoming req see
system.mem_ctrl.bytesPerActivate::samples          769                       # Bytes accessed per row activation
system.mem_ctrl.bytesPerActivate::mean     293.784135                       # Bytes accessed per row activation
system.mem_ctrl.bytesPerActivate::gmean    182.591373                       # Bytes accessed per row activation
system.mem_ctrl.bytesPerActivate::stdev    305.120468                       # Bytes accessed per row activation
system.mem_ctrl.bytesPerActivate::0-127           258     33.55%     33.55% # Bytes accessed per row activation
system.mem_ctrl.bytesPerActivate::128-255          208     27.05%     60.60% # Bytes accessed per row activation
system.mem_ctrl.bytesPerActivate::256-383           96     12.48%     73.08% # Bytes accessed per row activation
system.mem_ctrl.bytesPerActivate::384-511           64      8.32%     81.40% # Bytes accessed per row activation
system.mem_ctrl.bytesPerActivate::512-639           24      3.12%     84.53% # Bytes accessed per row activation
system.mem_ctrl.bytesPerActivate::640-767           16      2.08%     86.61% # Bytes accessed per row activation
system.mem_ctrl.bytesPerActivate::768-895           15      1.95%     88.56% # Bytes accessed per row activation
system.mem_ctrl.bytesPerActivate::896-1023           17      2.21%     90.77% # Bytes accessed per row activation
system.mem_ctrl.bytesPerActivate::1024-1151           71      9.23%    100.00% # Bytes accessed per row activation
system.mem_ctrl.bytesPerActivate::total           769                       # Bytes accessed per row activation
system.mem_ctrl.rdPerTurnAround::samples            8                       # Reads before turning the bus around for writes
system.mem_ctrl.rdPerTurnAround::mean      423.250000                       # Reads before turning the bus around for writes
system.mem_ctrl.rdPerTurnAround::gmean     178.924656                       # Reads before turning the bus around for writes
system.mem_ctrl.rdPerTurnAround::stdev     821.044239                       # Reads before turning the bus around for writes
system.mem_ctrl.rdPerTurnAround::0-127              5     62.50%     62.50% # Reads before turning the bus around for writes
system.mem_ctrl.rdPerTurnAround::128-255            1     12.50%     75.00% # Reads before turning the bus around for writes
system.mem_ctrl.rdPerTurnAround::256-383            1     12.50%     87.50% # Reads before turning the bus around for writes
system.mem_ctrl.rdPerTurnAround::2432-2559            1     12.50%    100.00% # Reads before turning the bus around for writes
system.mem_ctrl.rdPerTurnAround::total              8                       # Reads before turning the bus around for writes
system.mem_ctrl.wrPerTurnAround::samples            8                       # Writes before turning the bus around for reads
system.mem_ctrl.wrPerTurnAround::mean       17.625000                       # Writes before turning the bus around for reads
system.mem_ctrl.wrPerTurnAround::gmean      17.610654                       # Writes before turning the bus around for reads
system.mem_ctrl.wrPerTurnAround::stdev       0.744024                       # Writes before turning the bus around for reads
system.mem_ctrl.wrPerTurnAround::16                 1     12.50%     12.50% # Writes before turning the bus around for reads
system.mem_ctrl.wrPerTurnAround::17                 1     12.50%     25.00% # Writes before turning the bus around for reads
system.mem_ctrl.wrPerTurnAround::18                 6     75.00%    100.00% # Writes before turning the bus around for reads
system.mem_ctrl.wrPerTurnAround::total              8                       # Writes before turning the bus around for reads
system.mem_ctrl.totQLat                      51253000                       # Total ticks spent queuing
system.mem_ctrl.totMemAccLat                115228000                       # Total ticks spent from burst creation until serviced by the DRAM
system.mem_ctrl.totBusLat                    17060000                       # Total ticks spent in databus transfers
system.mem_ctrl.avgQLat                      15021.40                       # Average queueing delay per DRAM burst
system.mem_ctrl.avgBusLat                     5000.00                       # Average bus latency per DRAM burst
system.mem_ctrl.avgMemAccLat                 33771.40                       # Average memory access latency per DRAM burst
system.mem_ctrl.avgRdBW                        225.68                       # Average DRAM read bandwidth in MiByte/s
system.mem_ctrl.avgWrBW                          9.33                       # Average achieved write bandwidth in MiByte/s
system.mem_ctrl.avgRdBWSys                     226.21                       # Average system read bandwidth in MiByte/s
system.mem_ctrl.avgWrBWSys                      10.72                       # Average system write bandwidth in MiByte/s
system.mem_ctrl.peakBW                       12800.00                       # Theoretical peak bandwidth in MiByte/s
system.mem_ctrl.busUtil                          1.84                       # Data bus utilization in percentage
system.mem_ctrl.busUtilRead                      1.76                       # Data bus utilization in percentage for reads
system.mem_ctrl.busUtilWrite                     0.07                       # Data bus utilization in percentage for writes
system.mem_ctrl.avgRdQLen                        1.00                       # Average read queue length when enqueuing
system.mem_ctrl.avgWrQLen                       12.38                       # Average write queue length when enqueuing
system.mem_ctrl.readRowHits                      2666                       # Number of row buffer hits during reads
system.mem_ctrl.writeRowHits                      113                       # Number of row buffer hits during writes
system.mem_ctrl.readRowHitRate                  78.14                       # Row buffer hit rate for reads
system.mem_ctrl.writeRowHitRate                 69.75                       # Row buffer hit rate for writes
system.mem_ctrl.avgGap                      270096.87                       # Average gap between requests
system.mem_ctrl.pageHitRate                     77.76                       # Row buffer hit rate, read and write combined
system.mem_ctrl_0.actEnergy                   3148740                       # Energy for activate commands per rank (pJ)
system.mem_ctrl_0.preEnergy                   1662210                       # Energy for precharge commands per rank (pJ)
system.mem_ctrl_0.readEnergy                 12602100                       # Energy for read commands per rank (pJ)
system.mem_ctrl_0.writeEnergy                  219240                       # Energy for write commands per rank (pJ)
system.mem_ctrl_0.refreshEnergy          70683600.000000                       # Energy for refresh commands per rank (pJ)
system.mem_ctrl_0.actBackEnergy              38101650                       # Energy for active background per rank (pJ)
system.mem_ctrl_0.preBackEnergy               1787040                       # Energy for precharge background per rank (pJ)
system.mem_ctrl_0.actPowerDownEnergy        318349560                       # Energy for active power-down per rank (pJ)
system.mem_ctrl_0.prePowerDownEnergy         37782240                       # Energy for precharge power-down per rank (pJ)
system.mem_ctrl_0.selfRefreshEnergy          20989980                       # Energy for self refresh per rank (pJ)
system.mem_ctrl_0.totalEnergy               505326360                       # Total energy per rank (pJ)
system.mem_ctrl_0.averagePower             522.251216                       # Core power per rank (mW)
system.mem_ctrl_0.totalIdleTime             878975750                       # Total Idle time Per DRAM Rank
system.mem_ctrl_0.memoryStateTime::IDLE       1265000                       # Time in different power states
system.mem_ctrl_0.memoryStateTime::REF       29912000                       # Time in different power states
system.mem_ctrl_0.memoryStateTime::SREF      82856000                       # Time in different power states
system.mem_ctrl_0.memoryStateTime::PRE_PDN     98370500                       # Time in different power states
system.mem_ctrl_0.memoryStateTime::ACT       57034000                       # Time in different power states
system.mem_ctrl_0.memoryStateTime::ACT_PDN    698154500                       # Time in different power states
system.mem_ctrl_1.actEnergy                   2377620                       # Energy for activate commands per rank (pJ)
system.mem_ctrl_1.preEnergy                   1256145                       # Energy for precharge commands per rank (pJ)
system.mem_ctrl_1.readEnergy                 11759580                       # Energy for read commands per rank (pJ)
system.mem_ctrl_1.writeEnergy                  516780                       # Energy for write commands per rank (pJ)
system.mem_ctrl_1.refreshEnergy          71298240.000000                       # Energy for refresh commands per rank (pJ)
system.mem_ctrl_1.actBackEnergy              34807050                       # Energy for active background per rank (pJ)
system.mem_ctrl_1.preBackEnergy               5158560                       # Energy for precharge background per rank (pJ)
system.mem_ctrl_1.actPowerDownEnergy        314568180                       # Energy for active power-down per rank (pJ)
system.mem_ctrl_1.prePowerDownEnergy         34607040                       # Energy for precharge power-down per rank (pJ)
system.mem_ctrl_1.selfRefreshEnergy          26248200                       # Energy for self refresh per rank (pJ)
system.mem_ctrl_1.totalEnergy               502597395                       # Total energy per rank (pJ)
system.mem_ctrl_1.averagePower             519.430850                       # Core power per rank (mW)
system.mem_ctrl_1.totalIdleTime             877768250                       # Total Idle time Per DRAM Rank
system.mem_ctrl_1.memoryStateTime::IDLE       9928250                       # Time in different power states
system.mem_ctrl_1.memoryStateTime::REF       30190000                       # Time in different power states
system.mem_ctrl_1.memoryStateTime::SREF      97861500                       # Time in different power states
system.mem_ctrl_1.memoryStateTime::PRE_PDN     90128000                       # Time in different power states
system.mem_ctrl_1.memoryStateTime::ACT       49648250                       # Time in different power states
system.mem_ctrl_1.memoryStateTime::ACT_PDN    689836000                       # Time in different power states
system.pwrStateResidencyTicks::UNDEFINED    967592000                       # Cumulative time (in ticks) in various power states
system.cpu.dtb.walker.pwrStateResidencyTicks::UNDEFINED    967592000                       # Cumulative time (in ticks) in various power states
system.cpu.apic_clk_domain.clock                16000                       # Clock period in ticks
system.cpu.interrupts.pwrStateResidencyTicks::UNDEFINED    967592000                       # Cumulative time (in ticks) in various power states
system.cpu.itb.walker.pwrStateResidencyTicks::UNDEFINED    967592000                       # Cumulative time (in ticks) in various power states
system.cpu.workload.numSyscalls                    42                       # Number of system calls
system.cpu.pwrStateResidencyTicks::ON       967592000                       # Cumulative time (in ticks) in various power states
system.cpu.numCycles                           967592                       # number of cpu cycles simulated
system.cpu.numWorkItemsStarted                      0                       # number of work items this cpu started
system.cpu.numWorkItemsCompleted                    0                       # number of work items this cpu completed
system.cpu.committedInsts                      176585                       # Number of instructions committed
system.cpu.committedOps                        337034                       # Number of ops (including micro ops) committed
system.cpu.num_int_alu_accesses                333053                       # Number of integer alu accesses
system.cpu.num_fp_alu_accesses                   4180                       # Number of float alu accesses
system.cpu.num_func_calls                        2558                       # number of times a function call or return occured
system.cpu.num_conditional_control_insts        34697                       # number of instructions that are conditional controls
system.cpu.num_int_insts                       333053                       # number of integer instructions
system.cpu.num_fp_insts                          4180                       # number of float instructions
system.cpu.num_int_register_reads              644013                       # number of times the integer registers were read
system.cpu.num_int_register_writes             279204                       # number of times the integer registers were written
system.cpu.num_fp_register_reads                 6476                       # number of times the floating registers were read
system.cpu.num_fp_register_writes                3053                       # number of times the floating registers were written
system.cpu.num_cc_register_reads               214419                       # number of times the CC registers were read
system.cpu.num_cc_register_writes              129738                       # number of times the CC registers were written
system.cpu.num_mem_refs                         62681                       # number of memory refs
system.cpu.num_load_insts                       46387                       # Number of load instructions
system.cpu.num_store_insts                      16294                       # Number of store instructions
system.cpu.num_idle_cycles                          0                       # Number of idle cycles
system.cpu.num_busy_cycles                     967592                       # Number of busy cycles
system.cpu.not_idle_fraction                        1                       # Percentage of non-idle cycles
system.cpu.idle_fraction                            0                       # Percentage of idle cycles
system.cpu.Branches                             39846                       # Number of branches fetched
system.cpu.op_class::No_OpClass                  1721      0.51%      0.51% # Class of executed instruction
system.cpu.op_class::IntAlu                    268886     79.78%     80.29% # Class of executed instruction
system.cpu.op_class::IntMult                       20      0.01%     80.30% # Class of executed instruction
system.cpu.op_class::IntDiv                      1217      0.36%     80.66% # Class of executed instruction
system.cpu.op_class::FloatAdd                    2509      0.74%     81.40% # Class of executed instruction
system.cpu.op_class::FloatCmp                       0      0.00%     81.40% # Class of executed instruction
system.cpu.op_class::FloatCvt                       0      0.00%     81.40% # Class of executed instruction
system.cpu.op_class::FloatMult                      0      0.00%     81.40% # Class of executed instruction
system.cpu.op_class::FloatMultAcc                   0      0.00%     81.40% # Class of executed instruction
system.cpu.op_class::FloatDiv                       0      0.00%     81.40% # Class of executed instruction
system.cpu.op_class::FloatMisc                      0      0.00%     81.40% # Class of executed instruction
system.cpu.op_class::FloatSqrt                      0      0.00%     81.40% # Class of executed instruction
system.cpu.op_class::SimdAdd                        0      0.00%     81.40% # Class of executed instruction
system.cpu.op_class::SimdAddAcc                     0      0.00%     81.40% # Class of executed instruction
system.cpu.op_class::SimdAlu                        0      0.00%     81.40% # Class of executed instruction
system.cpu.op_class::SimdCmp                        0      0.00%     81.40% # Class of executed instruction
system.cpu.op_class::SimdCvt                        0      0.00%     81.40% # Class of executed instruction
system.cpu.op_class::SimdMisc                       0      0.00%     81.40% # Class of executed instruction
system.cpu.op_class::SimdMult                       0      0.00%     81.40% # Class of executed instruction
system.cpu.op_class::SimdMultAcc                    0      0.00%     81.40% # Class of executed instruction
system.cpu.op_class::SimdShift                      0      0.00%     81.40% # Class of executed instruction
system.cpu.op_class::SimdShiftAcc                   0      0.00%     81.40% # Class of executed instruction
system.cpu.op_class::SimdSqrt                       0      0.00%     81.40% # Class of executed instruction
system.cpu.op_class::SimdFloatAdd                   0      0.00%     81.40% # Class of executed instruction
system.cpu.op_class::SimdFloatAlu                   0      0.00%     81.40% # Class of executed instruction
system.cpu.op_class::SimdFloatCmp                   0      0.00%     81.40% # Class of executed instruction
system.cpu.op_class::SimdFloatCvt                   0      0.00%     81.40% # Class of executed instruction
system.cpu.op_class::SimdFloatDiv                   0      0.00%     81.40% # Class of executed instruction
system.cpu.op_class::SimdFloatMisc                  0      0.00%     81.40% # Class of executed instruction
system.cpu.op_class::SimdFloatMult                  0      0.00%     81.40% # Class of executed instruction
system.cpu.op_class::SimdFloatMultAcc               0      0.00%     81.40% # Class of executed instruction
system.cpu.op_class::SimdFloatSqrt                  0      0.00%     81.40% # Class of executed instruction
system.cpu.op_class::MemRead                    45457     13.49%     94.89% # Class of executed instruction
system.cpu.op_class::MemWrite                   15616      4.63%     99.52% # Class of executed instruction
system.cpu.op_class::FloatMemRead                 930      0.28%     99.80% # Class of executed instruction
system.cpu.op_class::FloatMemWrite                678      0.20%    100.00% # Class of executed instruction
system.cpu.op_class::IprAccess                      0      0.00%    100.00% # Class of executed instruction
system.cpu.op_class::InstPrefetch                   0      0.00%    100.00% # Class of executed instruction
system.cpu.op_class::total                     337034                       # Class of executed instruction
system.cpu.dcache.tags.pwrStateResidencyTicks::UNDEFINED    967592000                       # Cumulative time (in ticks) in various power states
system.cpu.dcache.tags.replacements              1733                       # number of replacements
system.cpu.dcache.tags.tagsinuse           822.902288                       # Cycle average of tags in use
system.cpu.dcache.tags.total_refs               59926                       # Total number of references to valid blocks.
system.cpu.dcache.tags.sampled_refs              2757                       # Sample count of references to valid blocks.
system.cpu.dcache.tags.avg_refs             21.735945                       # Average number of references to valid blocks.
system.cpu.dcache.tags.warmup_cycle         774713000                       # Cycle when the warmup percentage was hit.
system.cpu.dcache.tags.occ_blocks::cpu.data   822.902288                       # Average occupied blocks per requestor
system.cpu.dcache.tags.occ_percent::cpu.data     0.803616                       # Average percentage of cache occupancy
system.cpu.dcache.tags.occ_percent::total     0.803616                       # Average percentage of cache occupancy
system.cpu.dcache.tags.occ_task_id_blocks::1024         1024                       # Occupied blocks per task id
system.cpu.dcache.tags.age_task_id_blocks_1024::0           31                       # Occupied blocks per task id
system.cpu.dcache.tags.age_task_id_blocks_1024::1           20                       # Occupied blocks per task id
system.cpu.dcache.tags.age_task_id_blocks_1024::2          973                       # Occupied blocks per task id
system.cpu.dcache.tags.occ_task_id_percent::1024            1                       # Percentage of cache occupancy per task id
system.cpu.dcache.tags.tag_accesses            128123                       # Number of tag accesses
system.cpu.dcache.tags.data_accesses           128123                       # Number of data accesses
system.cpu.dcache.pwrStateResidencyTicks::UNDEFINED    967592000                       # Cumulative time (in ticks) in various power states
system.cpu.dcache.ReadReq_hits::cpu.data        44209                       # number of ReadReq hits
system.cpu.dcache.ReadReq_hits::total           44209                       # number of ReadReq hits
system.cpu.dcache.WriteReq_hits::cpu.data        15717                       # number of WriteReq hits
system.cpu.dcache.WriteReq_hits::total          15717                       # number of WriteReq hits
system.cpu.dcache.demand_hits::cpu.data         59926                       # number of demand (read+write) hits
system.cpu.dcache.demand_hits::total            59926                       # number of demand (read+write) hits
system.cpu.dcache.overall_hits::cpu.data        59926                       # number of overall hits
system.cpu.dcache.overall_hits::total           59926                       # number of overall hits
system.cpu.dcache.ReadReq_misses::cpu.data         2180                       # number of ReadReq misses
system.cpu.dcache.ReadReq_misses::total          2180                       # number of ReadReq misses
system.cpu.dcache.WriteReq_misses::cpu.data          577                       # number of WriteReq misses
system.cpu.dcache.WriteReq_misses::total          577                       # number of WriteReq misses
system.cpu.dcache.demand_misses::cpu.data         2757                       # number of demand (read+write) misses
system.cpu.dcache.demand_misses::total           2757                       # number of demand (read+write) misses
system.cpu.dcache.overall_misses::cpu.data         2757                       # number of overall misses
system.cpu.dcache.overall_misses::total          2757                       # number of overall misses
system.cpu.dcache.ReadReq_miss_latency::cpu.data    219529000                       # number of ReadReq miss cycles
system.cpu.dcache.ReadReq_miss_latency::total    219529000                       # number of ReadReq miss cycles
system.cpu.dcache.WriteReq_miss_latency::cpu.data     59384000                       # number of WriteReq miss cycles
system.cpu.dcache.WriteReq_miss_latency::total     59384000                       # number of WriteReq miss cycles
system.cpu.dcache.demand_miss_latency::cpu.data    278913000                       # number of demand (read+write) miss cycles
system.cpu.dcache.demand_miss_latency::total    278913000                       # number of demand (read+write) miss cycles
system.cpu.dcache.overall_miss_latency::cpu.data    278913000                       # number of overall miss cycles
system.cpu.dcache.overall_miss_latency::total    278913000                       # number of overall miss cycles
system.cpu.dcache.ReadReq_accesses::cpu.data        46389                       # number of ReadReq accesses(hits+misses)
system.cpu.dcache.ReadReq_accesses::total        46389                       # number of ReadReq accesses(hits+misses)
system.cpu.dcache.WriteReq_accesses::cpu.data        16294                       # number of WriteReq accesses(hits+misses)
system.cpu.dcache.WriteReq_accesses::total        16294                       # number of WriteReq accesses(hits+misses)
system.cpu.dcache.demand_accesses::cpu.data        62683                       # number of demand (read+write) accesses
system.cpu.dcache.demand_accesses::total        62683                       # number of demand (read+write) accesses
system.cpu.dcache.overall_accesses::cpu.data        62683                       # number of overall (read+write) accesses
system.cpu.dcache.overall_accesses::total        62683                       # number of overall (read+write) accesses
system.cpu.dcache.ReadReq_miss_rate::cpu.data     0.046994                       # miss rate for ReadReq accesses
system.cpu.dcache.ReadReq_miss_rate::total     0.046994                       # miss rate for ReadReq accesses
system.cpu.dcache.WriteReq_miss_rate::cpu.data     0.035412                       # miss rate for WriteReq accesses
system.cpu.dcache.WriteReq_miss_rate::total     0.035412                       # miss rate for WriteReq accesses
system.cpu.dcache.demand_miss_rate::cpu.data     0.043983                       # miss rate for demand accesses
system.cpu.dcache.demand_miss_rate::total     0.043983                       # miss rate for demand accesses
system.cpu.dcache.overall_miss_rate::cpu.data     0.043983                       # miss rate for overall accesses
system.cpu.dcache.overall_miss_rate::total     0.043983                       # miss rate for overall accesses
system.cpu.dcache.ReadReq_avg_miss_latency::cpu.data 100701.376147                       # average ReadReq miss latency
system.cpu.dcache.ReadReq_avg_miss_latency::total 100701.376147                       # average ReadReq miss latency
system.cpu.dcache.WriteReq_avg_miss_latency::cpu.data 102918.544194                       # average WriteReq miss latency
system.cpu.dcache.WriteReq_avg_miss_latency::total 102918.544194                       # average WriteReq miss latency
system.cpu.dcache.demand_avg_miss_latency::cpu.data 101165.397171                       # average overall miss latency
system.cpu.dcache.demand_avg_miss_latency::total 101165.397171                       # average overall miss latency
system.cpu.dcache.overall_avg_miss_latency::cpu.data 101165.397171                       # average overall miss latency
system.cpu.dcache.overall_avg_miss_latency::total 101165.397171                       # average overall miss latency
system.cpu.dcache.blocked_cycles::no_mshrs            0                       # number of cycles access was blocked
system.cpu.dcache.blocked_cycles::no_targets            0                       # number of cycles access was blocked
system.cpu.dcache.blocked::no_mshrs                 0                       # number of cycles access was blocked
system.cpu.dcache.blocked::no_targets               0                       # number of cycles access was blocked
system.cpu.dcache.avg_blocked_cycles::no_mshrs          nan                       # average number of cycles each access was blocked
system.cpu.dcache.avg_blocked_cycles::no_targets          nan                       # average number of cycles each access was blocked
system.cpu.dcache.writebacks::writebacks          595                       # number of writebacks
system.cpu.dcache.writebacks::total               595                       # number of writebacks
system.cpu.dcache.ReadReq_mshr_misses::cpu.data         2180                       # number of ReadReq MSHR misses
system.cpu.dcache.ReadReq_mshr_misses::total         2180                       # number of ReadReq MSHR misses
system.cpu.dcache.WriteReq_mshr_misses::cpu.data          577                       # number of WriteReq MSHR misses
system.cpu.dcache.WriteReq_mshr_misses::total          577                       # number of WriteReq MSHR misses
system.cpu.dcache.demand_mshr_misses::cpu.data         2757                       # number of demand (read+write) MSHR misses
system.cpu.dcache.demand_mshr_misses::total         2757                       # number of demand (read+write) MSHR misses
system.cpu.dcache.overall_mshr_misses::cpu.data         2757                       # number of overall MSHR misses
system.cpu.dcache.overall_mshr_misses::total         2757                       # number of overall MSHR misses
system.cpu.dcache.ReadReq_mshr_miss_latency::cpu.data    215169000                       # number of ReadReq MSHR miss cycles
system.cpu.dcache.ReadReq_mshr_miss_latency::total    215169000                       # number of ReadReq MSHR miss cycles
system.cpu.dcache.WriteReq_mshr_miss_latency::cpu.data     58230000                       # number of WriteReq MSHR miss cycles
system.cpu.dcache.WriteReq_mshr_miss_latency::total     58230000                       # number of WriteReq MSHR miss cycles
system.cpu.dcache.demand_mshr_miss_latency::cpu.data    273399000                       # number of demand (read+write) MSHR miss cycles
system.cpu.dcache.demand_mshr_miss_latency::total    273399000                       # number of demand (read+write) MSHR miss cycles
system.cpu.dcache.overall_mshr_miss_latency::cpu.data    273399000                       # number of overall MSHR miss cycles
system.cpu.dcache.overall_mshr_miss_latency::total    273399000                       # number of overall MSHR miss cycles
system.cpu.dcache.ReadReq_mshr_miss_rate::cpu.data     0.046994                       # mshr miss rate for ReadReq accesses
system.cpu.dcache.ReadReq_mshr_miss_rate::total     0.046994                       # mshr miss rate for ReadReq accesses
system.cpu.dcache.WriteReq_mshr_miss_rate::cpu.data     0.035412                       # mshr miss rate for WriteReq accesses
system.cpu.dcache.WriteReq_mshr_miss_rate::total     0.035412                       # mshr miss rate for WriteReq accesses
system.cpu.dcache.demand_mshr_miss_rate::cpu.data     0.043983                       # mshr miss rate for demand accesses
system.cpu.dcache.demand_mshr_miss_rate::total     0.043983                       # mshr miss rate for demand accesses
system.cpu.dcache.overall_mshr_miss_rate::cpu.data     0.043983                       # mshr miss rate for overall accesses
system.cpu.dcache.overall_mshr_miss_rate::total     0.043983                       # mshr miss rate for overall accesses
system.cpu.dcache.ReadReq_avg_mshr_miss_latency::cpu.data 98701.376147                       # average ReadReq mshr miss latency
system.cpu.dcache.ReadReq_avg_mshr_miss_latency::total 98701.376147                       # average ReadReq mshr miss latency
system.cpu.dcache.WriteReq_avg_mshr_miss_latency::cpu.data 100918.544194                       # average WriteReq mshr miss latency
system.cpu.dcache.WriteReq_avg_mshr_miss_latency::total 100918.544194                       # average WriteReq mshr miss latency
system.cpu.dcache.demand_avg_mshr_miss_latency::cpu.data 99165.397171                       # average overall mshr miss latency
system.cpu.dcache.demand_avg_mshr_miss_latency::total 99165.397171                       # average overall mshr miss latency
system.cpu.dcache.overall_avg_mshr_miss_latency::cpu.data 99165.397171                       # average overall mshr miss latency
system.cpu.dcache.overall_avg_mshr_miss_latency::total 99165.397171                       # average overall mshr miss latency
system.cpu.icache.tags.pwrStateResidencyTicks::UNDEFINED    967592000                       # Cumulative time (in ticks) in various power states
system.cpu.icache.tags.replacements               252                       # number of replacements
system.cpu.icache.tags.tagsinuse           541.301591                       # Cycle average of tags in use
system.cpu.icache.tags.total_refs              231664                       # Total number of references to valid blocks.
system.cpu.icache.tags.sampled_refs               982                       # Sample count of references to valid blocks.
system.cpu.icache.tags.avg_refs            235.910387                       # Average number of references to valid blocks.
system.cpu.icache.tags.warmup_cycle                 0                       # Cycle when the warmup percentage was hit.
system.cpu.icache.tags.occ_blocks::cpu.inst   541.301591                       # Average occupied blocks per requestor
system.cpu.icache.tags.occ_percent::cpu.inst     0.528615                       # Average percentage of cache occupancy
system.cpu.icache.tags.occ_percent::total     0.528615                       # Average percentage of cache occupancy
system.cpu.icache.tags.occ_task_id_blocks::1024          730                       # Occupied blocks per task id
system.cpu.icache.tags.age_task_id_blocks_1024::0           52                       # Occupied blocks per task id
system.cpu.icache.tags.age_task_id_blocks_1024::1            9                       # Occupied blocks per task id
system.cpu.icache.tags.age_task_id_blocks_1024::2          669                       # Occupied blocks per task id
system.cpu.icache.tags.occ_task_id_percent::1024     0.712891                       # Percentage of cache occupancy per task id
system.cpu.icache.tags.tag_accesses            466274                       # Number of tag accesses
system.cpu.icache.tags.data_accesses           466274                       # Number of data accesses
system.cpu.icache.pwrStateResidencyTicks::UNDEFINED    967592000                       # Cumulative time (in ticks) in various power states
system.cpu.icache.ReadReq_hits::cpu.inst       231664                       # number of ReadReq hits
system.cpu.icache.ReadReq_hits::total          231664                       # number of ReadReq hits
system.cpu.icache.demand_hits::cpu.inst        231664                       # number of demand (read+write) hits
system.cpu.icache.demand_hits::total           231664                       # number of demand (read+write) hits
system.cpu.icache.overall_hits::cpu.inst       231664                       # number of overall hits
system.cpu.icache.overall_hits::total          231664                       # number of overall hits
system.cpu.icache.ReadReq_misses::cpu.inst          982                       # number of ReadReq misses
system.cpu.icache.ReadReq_misses::total           982                       # number of ReadReq misses
system.cpu.icache.demand_misses::cpu.inst          982                       # number of demand (read+write) misses
system.cpu.icache.demand_misses::total            982                       # number of demand (read+write) misses
system.cpu.icache.overall_misses::cpu.inst          982                       # number of overall misses
system.cpu.icache.overall_misses::total           982                       # number of overall misses
system.cpu.icache.ReadReq_miss_latency::cpu.inst    105505000                       # number of ReadReq miss cycles
system.cpu.icache.ReadReq_miss_latency::total    105505000                       # number of ReadReq miss cycles
system.cpu.icache.demand_miss_latency::cpu.inst    105505000                       # number of demand (read+write) miss cycles
system.cpu.icache.demand_miss_latency::total    105505000                       # number of demand (read+write) miss cycles
system.cpu.icache.overall_miss_latency::cpu.inst    105505000                       # number of overall miss cycles
system.cpu.icache.overall_miss_latency::total    105505000                       # number of overall miss cycles
system.cpu.icache.ReadReq_accesses::cpu.inst       232646                       # number of ReadReq accesses(hits+misses)
system.cpu.icache.ReadReq_accesses::total       232646                       # number of ReadReq accesses(hits+misses)
system.cpu.icache.demand_accesses::cpu.inst       232646                       # number of demand (read+write) accesses
system.cpu.icache.demand_accesses::total       232646                       # number of demand (read+write) accesses
system.cpu.icache.overall_accesses::cpu.inst       232646                       # number of overall (read+write) accesses
system.cpu.icache.overall_accesses::total       232646                       # number of overall (read+write) accesses
system.cpu.icache.ReadReq_miss_rate::cpu.inst     0.004221                       # miss rate for ReadReq accesses
system.cpu.icache.ReadReq_miss_rate::total     0.004221                       # miss rate for ReadReq accesses
system.cpu.icache.demand_miss_rate::cpu.inst     0.004221                       # miss rate for demand accesses
system.cpu.icache.demand_miss_rate::total     0.004221                       # miss rate for demand accesses
system.cpu.icache.overall_miss_rate::cpu.inst     0.004221                       # miss rate for overall accesses
system.cpu.icache.overall_miss_rate::total     0.004221                       # miss rate for overall accesses
system.cpu.icache.ReadReq_avg_miss_latency::cpu.inst 107438.900204                       # average ReadReq miss latency
system.cpu.icache.ReadReq_avg_miss_latency::total 107438.900204                       # average ReadReq miss latency
system.cpu.icache.demand_avg_miss_latency::cpu.inst 107438.900204                       # average overall miss latency
system.cpu.icache.demand_avg_miss_latency::total 107438.900204                       # average overall miss latency
system.cpu.icache.overall_avg_miss_latency::cpu.inst 107438.900204                       # average overall miss latency
system.cpu.icache.overall_avg_miss_latency::total 107438.900204                       # average overall miss latency
system.cpu.icache.blocked_cycles::no_mshrs            0                       # number of cycles access was blocked
system.cpu.icache.blocked_cycles::no_targets            0                       # number of cycles access was blocked
system.cpu.icache.blocked::no_mshrs                 0                       # number of cycles access was blocked
system.cpu.icache.blocked::no_targets               0                       # number of cycles access was blocked
system.cpu.icache.avg_blocked_cycles::no_mshrs          nan                       # average number of cycles each access was blocked
system.cpu.icache.avg_blocked_cycles::no_targets          nan                       # average number of cycles each access was blocked
system.cpu.icache.ReadReq_mshr_misses::cpu.inst          982                       # number of ReadReq MSHR misses
system.cpu.icache.ReadReq_mshr_misses::total          982                       # number of ReadReq MSHR misses
system.cpu.icache.demand_mshr_misses::cpu.inst          982                       # number of demand (read+write) MSHR misses
system.cpu.icache.demand_mshr_misses::total          982                       # number of demand (read+write) MSHR misses
system.cpu.icache.overall_mshr_misses::cpu.inst          982                       # number of overall MSHR misses
system.cpu.icache.overall_mshr_misses::total          982                       # number of overall MSHR misses
system.cpu.icache.ReadReq_mshr_miss_latency::cpu.inst    103541000                       # number of ReadReq MSHR miss cycles
system.cpu.icache.ReadReq_mshr_miss_latency::total    103541000                       # number of ReadReq MSHR miss cycles
system.cpu.icache.demand_mshr_miss_latency::cpu.inst    103541000                       # number of demand (read+write) MSHR miss cycles
system.cpu.icache.demand_mshr_miss_latency::total    103541000                       # number of demand (read+write) MSHR miss cycles
system.cpu.icache.overall_mshr_miss_latency::cpu.inst    103541000                       # number of overall MSHR miss cycles
system.cpu.icache.overall_mshr_miss_latency::total    103541000                       # number of overall MSHR miss cycles
system.cpu.icache.ReadReq_mshr_miss_rate::cpu.inst     0.004221                       # mshr miss rate for ReadReq accesses
system.cpu.icache.ReadReq_mshr_miss_rate::total     0.004221                       # mshr miss rate for ReadReq accesses
system.cpu.icache.demand_mshr_miss_rate::cpu.inst     0.004221                       # mshr miss rate for demand accesses
system.cpu.icache.demand_mshr_miss_rate::total     0.004221                       # mshr miss rate for demand accesses
system.cpu.icache.overall_mshr_miss_rate::cpu.inst     0.004221                       # mshr miss rate for overall accesses
system.cpu.icache.overall_mshr_miss_rate::total     0.004221                       # mshr miss rate for overall accesses
system.cpu.icache.ReadReq_avg_mshr_miss_latency::cpu.inst 105438.900204                       # average ReadReq mshr miss latency
system.cpu.icache.ReadReq_avg_mshr_miss_latency::total 105438.900204                       # average ReadReq mshr miss latency
system.cpu.icache.demand_avg_mshr_miss_latency::cpu.inst 105438.900204                       # average overall mshr miss latency
system.cpu.icache.demand_avg_mshr_miss_latency::total 105438.900204                       # average overall mshr miss latency
system.cpu.icache.overall_avg_mshr_miss_latency::cpu.inst 105438.900204                       # average overall mshr miss latency
system.cpu.icache.overall_avg_mshr_miss_latency::total 105438.900204                       # average overall mshr miss latency
system.l2bus.snoop_filter.tot_requests           5724                       # Total number of requests made to the snoop filter.
system.l2bus.snoop_filter.hit_single_requests         1985                       # Number of requests hitting in the snoop filter with a single holder of the requested data.
system.l2bus.snoop_filter.hit_multi_requests            2                       # Number of requests hitting in the snoop filter with multiple (>1) holders of the requested data.
system.l2bus.snoop_filter.tot_snoops             1098                       # Total number of snoops made to the snoop filter.
system.l2bus.snoop_filter.hit_single_snoops         1098                       # Number of snoops hitting in the snoop filter with a single holder of the requested data.
system.l2bus.snoop_filter.hit_multi_snoops            0                       # Number of snoops hitting in the snoop filter with multiple (>1) holders of the requested data.
system.l2bus.pwrStateResidencyTicks::UNDEFINED    967592000                       # Cumulative time (in ticks) in various power states
system.l2bus.trans_dist::ReadResp                3162                       # Transaction distribution
system.l2bus.trans_dist::WritebackDirty           757                       # Transaction distribution
system.l2bus.trans_dist::CleanEvict              2771                       # Transaction distribution
system.l2bus.trans_dist::ReadExReq                577                       # Transaction distribution
system.l2bus.trans_dist::ReadExResp               577                       # Transaction distribution
system.l2bus.trans_dist::ReadSharedReq           3162                       # Transaction distribution
system.l2bus.pkt_count_system.cpu.icache.mem_side::system.l2cache.cpu_side         2216                       # Packet count per connected master and slave (bytes)
system.l2bus.pkt_count_system.cpu.dcache.mem_side::system.l2cache.cpu_side         7247                       # Packet count per connected master and slave (bytes)
system.l2bus.pkt_count::total                    9463                       # Packet count per connected master and slave (bytes)
system.l2bus.pkt_size_system.cpu.icache.mem_side::system.l2cache.cpu_side        62848                       # Cumulative packet size per connected master and slave (bytes)
system.l2bus.pkt_size_system.cpu.dcache.mem_side::system.l2cache.cpu_side       214528                       # Cumulative packet size per connected master and slave (bytes)
system.l2bus.pkt_size::total                   277376                       # Cumulative packet size per connected master and slave (bytes)
system.l2bus.snoops                              1543                       # Total snoops (count)
system.l2bus.snoopTraffic                       10368                       # Total snoop traffic (bytes)
system.l2bus.snoop_fanout::samples               5282                       # Request fanout histogram
system.l2bus.snoop_fanout::mean              0.208254                       # Request fanout histogram
system.l2bus.snoop_fanout::stdev             0.406098                       # Request fanout histogram
system.l2bus.snoop_fanout::underflows               0      0.00%      0.00% # Request fanout histogram
system.l2bus.snoop_fanout::0                     4182     79.17%     79.17% # Request fanout histogram
system.l2bus.snoop_fanout::1                     1100     20.83%    100.00% # Request fanout histogram
system.l2bus.snoop_fanout::2                        0      0.00%    100.00% # Request fanout histogram
system.l2bus.snoop_fanout::overflows                0      0.00%    100.00% # Request fanout histogram
system.l2bus.snoop_fanout::min_value                0                       # Request fanout histogram
system.l2bus.snoop_fanout::max_value                1                       # Request fanout histogram
system.l2bus.snoop_fanout::total                 5282                       # Request fanout histogram
system.l2bus.reqLayer0.occupancy              6914000                       # Layer occupancy (ticks)
system.l2bus.reqLayer0.utilization                0.7                       # Layer utilization (%)
system.l2bus.respLayer0.occupancy             2946000                       # Layer occupancy (ticks)
system.l2bus.respLayer0.utilization               0.3                       # Layer utilization (%)
system.l2bus.respLayer1.occupancy             8271000                       # Layer occupancy (ticks)
system.l2bus.respLayer1.utilization               0.9                       # Layer utilization (%)
system.l2cache.tags.pwrStateResidencyTicks::UNDEFINED    967592000                       # Cumulative time (in ticks) in various power states
system.l2cache.tags.replacements                 1543                       # number of replacements
system.l2cache.tags.tagsinuse             1606.361137                       # Cycle average of tags in use
system.l2cache.tags.total_refs                   1726                       # Total number of references to valid blocks.
system.l2cache.tags.sampled_refs                 3591                       # Sample count of references to valid blocks.
system.l2cache.tags.avg_refs                 0.480646                       # Average number of references to valid blocks.
system.l2cache.tags.warmup_cycle            792488000                       # Cycle when the warmup percentage was hit.
system.l2cache.tags.occ_blocks::writebacks    47.791987                       # Average occupied blocks per requestor
system.l2cache.tags.occ_blocks::cpu.inst   406.682939                       # Average occupied blocks per requestor
system.l2cache.tags.occ_blocks::cpu.data  1151.886212                       # Average occupied blocks per requestor
system.l2cache.tags.occ_percent::writebacks     0.023336                       # Average percentage of cache occupancy
system.l2cache.tags.occ_percent::cpu.inst     0.198576                       # Average percentage of cache occupancy
system.l2cache.tags.occ_percent::cpu.data     0.562444                       # Average percentage of cache occupancy
system.l2cache.tags.occ_percent::total       0.784356                       # Average percentage of cache occupancy
system.l2cache.tags.occ_task_id_blocks::1024         2048                       # Occupied blocks per task id
system.l2cache.tags.age_task_id_blocks_1024::0           57                       # Occupied blocks per task id
system.l2cache.tags.age_task_id_blocks_1024::1           15                       # Occupied blocks per task id
system.l2cache.tags.age_task_id_blocks_1024::2         1976                       # Occupied blocks per task id
system.l2cache.tags.occ_task_id_percent::1024            1                       # Percentage of cache occupancy per task id
system.l2cache.tags.tag_accesses                49367                       # Number of tag accesses
system.l2cache.tags.data_accesses               49367                       # Number of data accesses
system.l2cache.pwrStateResidencyTicks::UNDEFINED    967592000                       # Cumulative time (in ticks) in various power states
system.l2cache.WritebackDirty_hits::writebacks          595                       # number of WritebackDirty hits
system.l2cache.WritebackDirty_hits::total          595                       # number of WritebackDirty hits
system.l2cache.ReadExReq_hits::cpu.data            59                       # number of ReadExReq hits
system.l2cache.ReadExReq_hits::total               59                       # number of ReadExReq hits
system.l2cache.ReadSharedReq_hits::cpu.inst            6                       # number of ReadSharedReq hits
system.l2cache.ReadSharedReq_hits::cpu.data          254                       # number of ReadSharedReq hits
system.l2cache.ReadSharedReq_hits::total          260                       # number of ReadSharedReq hits
system.l2cache.demand_hits::cpu.inst                6                       # number of demand (read+write) hits
system.l2cache.demand_hits::cpu.data              313                       # number of demand (read+write) hits
system.l2cache.demand_hits::total                 319                       # number of demand (read+write) hits
system.l2cache.overall_hits::cpu.inst               6                       # number of overall hits
system.l2cache.overall_hits::cpu.data             313                       # number of overall hits
system.l2cache.overall_hits::total                319                       # number of overall hits
system.l2cache.ReadExReq_misses::cpu.data          518                       # number of ReadExReq misses
system.l2cache.ReadExReq_misses::total            518                       # number of ReadExReq misses
system.l2cache.ReadSharedReq_misses::cpu.inst          976                       # number of ReadSharedReq misses
system.l2cache.ReadSharedReq_misses::cpu.data         1926                       # number of ReadSharedReq misses
system.l2cache.ReadSharedReq_misses::total         2902                       # number of ReadSharedReq misses
system.l2cache.demand_misses::cpu.inst            976                       # number of demand (read+write) misses
system.l2cache.demand_misses::cpu.data           2444                       # number of demand (read+write) misses
system.l2cache.demand_misses::total              3420                       # number of demand (read+write) misses
system.l2cache.overall_misses::cpu.inst           976                       # number of overall misses
system.l2cache.overall_misses::cpu.data          2444                       # number of overall misses
system.l2cache.overall_misses::total             3420                       # number of overall misses
system.l2cache.ReadExReq_miss_latency::cpu.data     55260000                       # number of ReadExReq miss cycles
system.l2cache.ReadExReq_miss_latency::total     55260000                       # number of ReadExReq miss cycles
system.l2cache.ReadSharedReq_miss_latency::cpu.inst    100465000                       # number of ReadSharedReq miss cycles
system.l2cache.ReadSharedReq_miss_latency::cpu.data    203295000                       # number of ReadSharedReq miss cycles
system.l2cache.ReadSharedReq_miss_latency::total    303760000                       # number of ReadSharedReq miss cycles
system.l2cache.demand_miss_latency::cpu.inst    100465000                       # number of demand (read+write) miss cycles
system.l2cache.demand_miss_latency::cpu.data    258555000                       # number of demand (read+write) miss cycles
system.l2cache.demand_miss_latency::total    359020000                       # number of demand (read+write) miss cycles
system.l2cache.overall_miss_latency::cpu.inst    100465000                       # number of overall miss cycles
system.l2cache.overall_miss_latency::cpu.data    258555000                       # number of overall miss cycles
system.l2cache.overall_miss_latency::total    359020000                       # number of overall miss cycles
system.l2cache.WritebackDirty_accesses::writebacks          595                       # number of WritebackDirty accesses(hits+misses)
system.l2cache.WritebackDirty_accesses::total          595                       # number of WritebackDirty accesses(hits+misses)
system.l2cache.ReadExReq_accesses::cpu.data          577                       # number of ReadExReq accesses(hits+misses)
system.l2cache.ReadExReq_accesses::total          577                       # number of ReadExReq accesses(hits+misses)
system.l2cache.ReadSharedReq_accesses::cpu.inst          982                       # number of ReadSharedReq accesses(hits+misses)
system.l2cache.ReadSharedReq_accesses::cpu.data         2180                       # number of ReadSharedReq accesses(hits+misses)
system.l2cache.ReadSharedReq_accesses::total         3162                       # number of ReadSharedReq accesses(hits+misses)
system.l2cache.demand_accesses::cpu.inst          982                       # number of demand (read+write) accesses
system.l2cache.demand_accesses::cpu.data         2757                       # number of demand (read+write) accesses
system.l2cache.demand_accesses::total            3739                       # number of demand (read+write) accesses
system.l2cache.overall_accesses::cpu.inst          982                       # number of overall (read+write) accesses
system.l2cache.overall_accesses::cpu.data         2757                       # number of overall (read+write) accesses
system.l2cache.overall_accesses::total           3739                       # number of overall (read+write) accesses
system.l2cache.ReadExReq_miss_rate::cpu.data     0.897747                       # miss rate for ReadExReq accesses
system.l2cache.ReadExReq_miss_rate::total     0.897747                       # miss rate for ReadExReq accesses
system.l2cache.ReadSharedReq_miss_rate::cpu.inst     0.993890                       # miss rate for ReadSharedReq accesses
system.l2cache.ReadSharedReq_miss_rate::cpu.data     0.883486                       # miss rate for ReadSharedReq accesses
system.l2cache.ReadSharedReq_miss_rate::total     0.917774                       # miss rate for ReadSharedReq accesses
system.l2cache.demand_miss_rate::cpu.inst     0.993890                       # miss rate for demand accesses
system.l2cache.demand_miss_rate::cpu.data     0.886471                       # miss rate for demand accesses
system.l2cache.demand_miss_rate::total       0.914683                       # miss rate for demand accesses
system.l2cache.overall_miss_rate::cpu.inst     0.993890                       # miss rate for overall accesses
system.l2cache.overall_miss_rate::cpu.data     0.886471                       # miss rate for overall accesses
system.l2cache.overall_miss_rate::total      0.914683                       # miss rate for overall accesses
system.l2cache.ReadExReq_avg_miss_latency::cpu.data 106679.536680                       # average ReadExReq miss latency
system.l2cache.ReadExReq_avg_miss_latency::total 106679.536680                       # average ReadExReq miss latency
system.l2cache.ReadSharedReq_avg_miss_latency::cpu.inst 102935.450820                       # average ReadSharedReq miss latency
system.l2cache.ReadSharedReq_avg_miss_latency::cpu.data 105552.959502                       # average ReadSharedReq miss latency
system.l2cache.ReadSharedReq_avg_miss_latency::total 104672.639559                       # average ReadSharedReq miss latency
system.l2cache.demand_avg_miss_latency::cpu.inst 102935.450820                       # average overall miss latency
system.l2cache.demand_avg_miss_latency::cpu.data 105791.734861                       # average overall miss latency
system.l2cache.demand_avg_miss_latency::total 104976.608187                       # average overall miss latency
system.l2cache.overall_avg_miss_latency::cpu.inst 102935.450820                       # average overall miss latency
system.l2cache.overall_avg_miss_latency::cpu.data 105791.734861                       # average overall miss latency
system.l2cache.overall_avg_miss_latency::total 104976.608187                       # average overall miss latency
system.l2cache.blocked_cycles::no_mshrs             0                       # number of cycles access was blocked
system.l2cache.blocked_cycles::no_targets            0                       # number of cycles access was blocked
system.l2cache.blocked::no_mshrs                    0                       # number of cycles access was blocked
system.l2cache.blocked::no_targets                  0                       # number of cycles access was blocked
system.l2cache.avg_blocked_cycles::no_mshrs          nan                       # average number of cycles each access was blocked
system.l2cache.avg_blocked_cycles::no_targets          nan                       # average number of cycles each access was blocked
system.l2cache.writebacks::writebacks             162                       # number of writebacks
system.l2cache.writebacks::total                  162                       # number of writebacks
system.l2cache.CleanEvict_mshr_misses::writebacks          405                       # number of CleanEvict MSHR misses
system.l2cache.CleanEvict_mshr_misses::total          405                       # number of CleanEvict MSHR misses
system.l2cache.ReadExReq_mshr_misses::cpu.data          518                       # number of ReadExReq MSHR misses
system.l2cache.ReadExReq_mshr_misses::total          518                       # number of ReadExReq MSHR misses
system.l2cache.ReadSharedReq_mshr_misses::cpu.inst          976                       # number of ReadSharedReq MSHR misses
system.l2cache.ReadSharedReq_mshr_misses::cpu.data         1926                       # number of ReadSharedReq MSHR misses
system.l2cache.ReadSharedReq_mshr_misses::total         2902                       # number of ReadSharedReq MSHR misses
system.l2cache.demand_mshr_misses::cpu.inst          976                       # number of demand (read+write) MSHR misses
system.l2cache.demand_mshr_misses::cpu.data         2444                       # number of demand (read+write) MSHR misses
system.l2cache.demand_mshr_misses::total         3420                       # number of demand (read+write) MSHR misses
system.l2cache.overall_mshr_misses::cpu.inst          976                       # number of overall MSHR misses
system.l2cache.overall_mshr_misses::cpu.data         2444                       # number of overall MSHR misses
system.l2cache.overall_mshr_misses::total         3420                       # number of overall MSHR misses
system.l2cache.ReadExReq_mshr_miss_latency::cpu.data     44900000                       # number of ReadExReq MSHR miss cycles
system.l2cache.ReadExReq_mshr_miss_latency::total     44900000                       # number of ReadExReq MSHR miss cycles
system.l2cache.ReadSharedReq_mshr_miss_latency::cpu.inst     80945000                       # number of ReadSharedReq MSHR miss cycles
system.l2cache.ReadSharedReq_mshr_miss_latency::cpu.data    164775000                       # number of ReadSharedReq MSHR miss cycles
system.l2cache.ReadSharedReq_mshr_miss_latency::total    245720000                       # number of ReadSharedReq MSHR miss cycles
system.l2cache.demand_mshr_miss_latency::cpu.inst     80945000                       # number of demand (read+write) MSHR miss cycles
system.l2cache.demand_mshr_miss_latency::cpu.data    209675000                       # number of demand (read+write) MSHR miss cycles
system.l2cache.demand_mshr_miss_latency::total    290620000                       # number of demand (read+write) MSHR miss cycles
system.l2cache.overall_mshr_miss_latency::cpu.inst     80945000                       # number of overall MSHR miss cycles
system.l2cache.overall_mshr_miss_latency::cpu.data    209675000                       # number of overall MSHR miss cycles
system.l2cache.overall_mshr_miss_latency::total    290620000                       # number of overall MSHR miss cycles
system.l2cache.CleanEvict_mshr_miss_rate::writebacks          inf                       # mshr miss rate for CleanEvict accesses
system.l2cache.CleanEvict_mshr_miss_rate::total          inf                       # mshr miss rate for CleanEvict accesses
system.l2cache.ReadExReq_mshr_miss_rate::cpu.data     0.897747                       # mshr miss rate for ReadExReq accesses
system.l2cache.ReadExReq_mshr_miss_rate::total     0.897747                       # mshr miss rate for ReadExReq accesses
system.l2cache.ReadSharedReq_mshr_miss_rate::cpu.inst     0.993890                       # mshr miss rate for ReadSharedReq accesses
system.l2cache.ReadSharedReq_mshr_miss_rate::cpu.data     0.883486                       # mshr miss rate for ReadSharedReq accesses
system.l2cache.ReadSharedReq_mshr_miss_rate::total     0.917774                       # mshr miss rate for ReadSharedReq accesses
system.l2cache.demand_mshr_miss_rate::cpu.inst     0.993890                       # mshr miss rate for demand accesses
system.l2cache.demand_mshr_miss_rate::cpu.data     0.886471                       # mshr miss rate for demand accesses
system.l2cache.demand_mshr_miss_rate::total     0.914683                       # mshr miss rate for demand accesses
system.l2cache.overall_mshr_miss_rate::cpu.inst     0.993890                       # mshr miss rate for overall accesses
system.l2cache.overall_mshr_miss_rate::cpu.data     0.886471                       # mshr miss rate for overall accesses
system.l2cache.overall_mshr_miss_rate::total     0.914683                       # mshr miss rate for overall accesses
system.l2cache.ReadExReq_avg_mshr_miss_latency::cpu.data 86679.536680                       # average ReadExReq mshr miss latency
system.l2cache.ReadExReq_avg_mshr_miss_latency::total 86679.536680                       # average ReadExReq mshr miss latency
system.l2cache.ReadSharedReq_avg_mshr_miss_latency::cpu.inst 82935.450820                       # average ReadSharedReq mshr miss latency
system.l2cache.ReadSharedReq_avg_mshr_miss_latency::cpu.data 85552.959502                       # average ReadSharedReq mshr miss latency
system.l2cache.ReadSharedReq_avg_mshr_miss_latency::total 84672.639559                       # average ReadSharedReq mshr miss latency
system.l2cache.demand_avg_mshr_miss_latency::cpu.inst 82935.450820                       # average overall mshr miss latency
system.l2cache.demand_avg_mshr_miss_latency::cpu.data 85791.734861                       # average overall mshr miss latency
system.l2cache.demand_avg_mshr_miss_latency::total 84976.608187                       # average overall mshr miss latency
system.l2cache.overall_avg_mshr_miss_latency::cpu.inst 82935.450820                       # average overall mshr miss latency
system.l2cache.overall_avg_mshr_miss_latency::cpu.data 85791.734861                       # average overall mshr miss latency
system.l2cache.overall_avg_mshr_miss_latency::total 84976.608187                       # average overall mshr miss latency
system.membus.snoop_filter.tot_requests          4269                       # Total number of requests made to the snoop filter.
system.membus.snoop_filter.hit_single_requests          850                       # Number of requests hitting in the snoop filter with a single holder of the requested data.
system.membus.snoop_filter.hit_multi_requests            0                       # Number of requests hitting in the snoop filter with multiple (>1) holders of the requested data.
system.membus.snoop_filter.tot_snoops               0                       # Total number of snoops made to the snoop filter.
system.membus.snoop_filter.hit_single_snoops            0                       # Number of snoops hitting in the snoop filter with a single holder of the requested data.
system.membus.snoop_filter.hit_multi_snoops            0                       # Number of snoops hitting in the snoop filter with multiple (>1) holders of the requested data.
system.membus.pwrStateResidencyTicks::UNDEFINED    967592000                       # Cumulative time (in ticks) in various power states
system.membus.trans_dist::ReadResp               2902                       # Transaction distribution
system.membus.trans_dist::WritebackDirty          162                       # Transaction distribution
system.membus.trans_dist::CleanEvict              687                       # Transaction distribution
system.membus.trans_dist::ReadExReq               518                       # Transaction distribution
system.membus.trans_dist::ReadExResp              518                       # Transaction distribution
system.membus.trans_dist::ReadSharedReq          2902                       # Transaction distribution
system.membus.pkt_count_system.l2cache.mem_side::system.mem_ctrl.port         7689                       # Packet count per connected master and slave (bytes)
system.membus.pkt_count_system.l2cache.mem_side::total         7689                       # Packet count per connected master and slave (bytes)
system.membus.pkt_count::total                   7689                       # Packet count per connected master and slave (bytes)
system.membus.pkt_size_system.l2cache.mem_side::system.mem_ctrl.port       229248                       # Cumulative packet size per connected master and slave (bytes)
system.membus.pkt_size_system.l2cache.mem_side::total       229248                       # Cumulative packet size per connected master and slave (bytes)
system.membus.pkt_size::total                  229248                       # Cumulative packet size per connected master and slave (bytes)
system.membus.snoops                                0                       # Total snoops (count)
system.membus.snoopTraffic                          0                       # Total snoop traffic (bytes)
system.membus.snoop_fanout::samples              3420                       # Request fanout histogram
system.membus.snoop_fanout::mean                    0                       # Request fanout histogram
system.membus.snoop_fanout::stdev                   0                       # Request fanout histogram
system.membus.snoop_fanout::underflows              0      0.00%      0.00% # Request fanout histogram
system.membus.snoop_fanout::0                    3420    100.00%    100.00% # Request fanout histogram
system.membus.snoop_fanout::1                       0      0.00%    100.00% # Request fanout histogram
system.membus.snoop_fanout::overflows               0      0.00%    100.00% # Request fanout histogram
system.membus.snoop_fanout::min_value               0                       # Request fanout histogram
system.membus.snoop_fanout::max_value               0                       # Request fanout histogram
system.membus.snoop_fanout::total                3420                       # Request fanout histogram
system.membus.reqLayer2.occupancy             4917000                       # Layer occupancy (ticks)
system.membus.reqLayer2.utilization               0.5                       # Layer utilization (%)
system.membus.respLayer0.occupancy           18150000                       # Layer occupancy (ticks)
system.membus.respLayer0.utilization              1.9                       # Layer utilization (%)

---------- End Simulation Statistics   ----------
