
---------- Begin Simulation Statistics ----------
sim_seconds                                  0.036037                       # Number of seconds simulated
sim_ticks                                 36037269000                       # Number of ticks simulated
final_tick                                36037269000                       # Number of ticks from beginning of simulation (restored from checkpoints and never reset)
sim_freq                                 1000000000000                       # Frequency of simulated ticks
host_inst_rate                                1657799                       # Simulator instruction rate (inst/s)
host_op_rate                                  2155693                       # Simulator op (including micro ops) rate (op/s)
host_tick_rate                             4943263399                       # Simulator tick rate (ticks/s)
host_mem_usage                                 676512                       # Number of bytes of host memory used
host_seconds                                     7.29                       # Real time elapsed on the host
sim_insts                                    12085629                       # Number of instructions simulated
sim_ops                                      15715369                       # Number of ops (including micro ops) simulated
system.clk_domain.voltage_domain.voltage            1                       # Voltage in Volts
system.clk_domain.clock                          1000                       # Clock period in ticks
system.mem_ctrl.pwrStateResidencyTicks::UNDEFINED  36037269000                       # Cumulative time (in ticks) in various power states
system.mem_ctrl.bytes_read::cpu.inst            65408                       # Number of bytes read from this memory
system.mem_ctrl.bytes_read::cpu.data           158976                       # Number of bytes read from this memory
system.mem_ctrl.bytes_read::total              224384                       # Number of bytes read from this memory
system.mem_ctrl.bytes_inst_read::cpu.inst        65408                       # Number of instructions bytes read from this memory
system.mem_ctrl.bytes_inst_read::total          65408                       # Number of instructions bytes read from this memory
system.mem_ctrl.num_reads::cpu.inst              1022                       # Number of read requests responded to by this memory
system.mem_ctrl.num_reads::cpu.data              2484                       # Number of read requests responded to by this memory
system.mem_ctrl.num_reads::total                 3506                       # Number of read requests responded to by this memory
system.mem_ctrl.bw_read::cpu.inst             1815010                       # Total read bandwidth from this memory (bytes/s)
system.mem_ctrl.bw_read::cpu.data             4411433                       # Total read bandwidth from this memory (bytes/s)
system.mem_ctrl.bw_read::total                6226443                       # Total read bandwidth from this memory (bytes/s)
system.mem_ctrl.bw_inst_read::cpu.inst        1815010                       # Instruction read bandwidth from this memory (bytes/s)
system.mem_ctrl.bw_inst_read::total           1815010                       # Instruction read bandwidth from this memory (bytes/s)
system.mem_ctrl.bw_total::cpu.inst            1815010                       # Total bandwidth to/from this memory (bytes/s)
system.mem_ctrl.bw_total::cpu.data            4411433                       # Total bandwidth to/from this memory (bytes/s)
system.mem_ctrl.bw_total::total               6226443                       # Total bandwidth to/from this memory (bytes/s)
system.mem_ctrl.readReqs                         3506                       # Number of read requests accepted
system.mem_ctrl.writeReqs                           0                       # Number of write requests accepted
system.mem_ctrl.readBursts                       3506                       # Number of DRAM read bursts, including those serviced by the write queue
system.mem_ctrl.writeBursts                         0                       # Number of DRAM write bursts, including those merged in the write queue
system.mem_ctrl.bytesReadDRAM                  224384                       # Total number of bytes read from DRAM
system.mem_ctrl.bytesReadWrQ                        0                       # Total number of bytes read from write queue
system.mem_ctrl.bytesWritten                        0                       # Total number of bytes written to DRAM
system.mem_ctrl.bytesReadSys                   224384                       # Total read bytes from the system interface side
system.mem_ctrl.bytesWrittenSys                     0                       # Total written bytes from the system interface side
system.mem_ctrl.servicedByWrQ                       0                       # Number of DRAM read bursts serviced by the write queue
system.mem_ctrl.mergedWrBursts                      0                       # Number of DRAM write bursts merged with an existing one
system.mem_ctrl.neitherReadNorWriteReqs             0                       # Number of requests that are neither read nor write
system.mem_ctrl.perBankRdBursts::0                208                       # Per bank write bursts
system.mem_ctrl.perBankRdBursts::1                174                       # Per bank write bursts
system.mem_ctrl.perBankRdBursts::2                267                       # Per bank write bursts
system.mem_ctrl.perBankRdBursts::3                277                       # Per bank write bursts
system.mem_ctrl.perBankRdBursts::4                194                       # Per bank write bursts
system.mem_ctrl.perBankRdBursts::5                209                       # Per bank write bursts
system.mem_ctrl.perBankRdBursts::6                328                       # Per bank write bursts
system.mem_ctrl.perBankRdBursts::7                193                       # Per bank write bursts
system.mem_ctrl.perBankRdBursts::8                236                       # Per bank write bursts
system.mem_ctrl.perBankRdBursts::9                176                       # Per bank write bursts
system.mem_ctrl.perBankRdBursts::10               218                       # Per bank write bursts
system.mem_ctrl.perBankRdBursts::11               274                       # Per bank write bursts
system.mem_ctrl.perBankRdBursts::12               308                       # Per bank write bursts
system.mem_ctrl.perBankRdBursts::13               241                       # Per bank write bursts
system.mem_ctrl.perBankRdBursts::14               132                       # Per bank write bursts
system.mem_ctrl.perBankRdBursts::15                71                       # Per bank write bursts
system.mem_ctrl.perBankWrBursts::0                  0                       # Per bank write bursts
system.mem_ctrl.perBankWrBursts::1                  0                       # Per bank write bursts
system.mem_ctrl.perBankWrBursts::2                  0                       # Per bank write bursts
system.mem_ctrl.perBankWrBursts::3                  0                       # Per bank write bursts
system.mem_ctrl.perBankWrBursts::4                  0                       # Per bank write bursts
system.mem_ctrl.perBankWrBursts::5                  0                       # Per bank write bursts
system.mem_ctrl.perBankWrBursts::6                  0                       # Per bank write bursts
system.mem_ctrl.perBankWrBursts::7                  0                       # Per bank write bursts
system.mem_ctrl.perBankWrBursts::8                  0                       # Per bank write bursts
system.mem_ctrl.perBankWrBursts::9                  0                       # Per bank write bursts
system.mem_ctrl.perBankWrBursts::10                 0                       # Per bank write bursts
system.mem_ctrl.perBankWrBursts::11                 0                       # Per bank write bursts
system.mem_ctrl.perBankWrBursts::12                 0                       # Per bank write bursts
system.mem_ctrl.perBankWrBursts::13                 0                       # Per bank write bursts
system.mem_ctrl.perBankWrBursts::14                 0                       # Per bank write bursts
system.mem_ctrl.perBankWrBursts::15                 0                       # Per bank write bursts
system.mem_ctrl.numRdRetry                          0                       # Number of times read queue was full causing retry
system.mem_ctrl.numWrRetry                          0                       # Number of times write queue was full causing retry
system.mem_ctrl.totGap                    36037164000                       # Total gap between requests
system.mem_ctrl.readPktSize::0                      0                       # Read request sizes (log2)
system.mem_ctrl.readPktSize::1                      0                       # Read request sizes (log2)
system.mem_ctrl.readPktSize::2                      0                       # Read request sizes (log2)
system.mem_ctrl.readPktSize::3                      0                       # Read request sizes (log2)
system.mem_ctrl.readPktSize::4                      0                       # Read request sizes (log2)
system.mem_ctrl.readPktSize::5                      0                       # Read request sizes (log2)
system.mem_ctrl.readPktSize::6                   3506                       # Read request sizes (log2)
system.mem_ctrl.writePktSize::0                     0                       # Write request sizes (log2)
system.mem_ctrl.writePktSize::1                     0                       # Write request sizes (log2)
system.mem_ctrl.writePktSize::2                     0                       # Write request sizes (log2)
system.mem_ctrl.writePktSize::3                     0                       # Write request sizes (log2)
system.mem_ctrl.writePktSize::4                     0                       # Write request sizes (log2)
system.mem_ctrl.writePktSize::5                     0                       # Write request sizes (log2)
system.mem_ctrl.writePktSize::6                     0                       # Write request sizes (log2)
system.mem_ctrl.rdQLenPdf::0                     3506                       # What read queue length does an incoming req see
system.mem_ctrl.rdQLenPdf::1                        0                       # What read queue length does an incoming req see
system.mem_ctrl.rdQLenPdf::2                        0                       # What read queue length does an incoming req see
system.mem_ctrl.rdQLenPdf::3                        0                       # What read queue length does an incoming req see
system.mem_ctrl.rdQLenPdf::4                        0                       # What read queue length does an incoming req see
system.mem_ctrl.rdQLenPdf::5                        0                       # What read queue length does an incoming req see
system.mem_ctrl.rdQLenPdf::6                        0                       # What read queue length does an incoming req see
system.mem_ctrl.rdQLenPdf::7                        0                       # What read queue length does an incoming req see
system.mem_ctrl.rdQLenPdf::8                        0                       # What read queue length does an incoming req see
system.mem_ctrl.rdQLenPdf::9                        0                       # What read queue length does an incoming req see
system.mem_ctrl.rdQLenPdf::10                       0                       # What read queue length does an incoming req see
system.mem_ctrl.rdQLenPdf::11                       0                       # What read queue length does an incoming req see
system.mem_ctrl.rdQLenPdf::12                       0                       # What read queue length does an incoming req see
system.mem_ctrl.rdQLenPdf::13                       0                       # What read queue length does an incoming req see
system.mem_ctrl.rdQLenPdf::14                       0                       # What read queue length does an incoming req see
system.mem_ctrl.rdQLenPdf::15                       0                       # What read queue length does an incoming req see
system.mem_ctrl.rdQLenPdf::16                       0                       # What read queue length does an incoming req see
system.mem_ctrl.rdQLenPdf::17                       0                       # What read queue length does an incoming req see
system.mem_ctrl.rdQLenPdf::18                       0                       # What read queue length does an incoming req see
system.mem_ctrl.rdQLenPdf::19                       0                       # What read queue length does an incoming req see
system.mem_ctrl.rdQLenPdf::20                       0                       # What read queue length does an incoming req see
system.mem_ctrl.rdQLenPdf::21                       0                       # What read queue length does an incoming req see
system.mem_ctrl.rdQLenPdf::22                       0                       # What read queue length does an incoming req see
system.mem_ctrl.rdQLenPdf::23                       0                       # What read queue length does an incoming req see
system.mem_ctrl.rdQLenPdf::24                       0                       # What read queue length does an incoming req see
system.mem_ctrl.rdQLenPdf::25                       0                       # What read queue length does an incoming req see
system.mem_ctrl.rdQLenPdf::26                       0                       # What read queue length does an incoming req see
system.mem_ctrl.rdQLenPdf::27                       0                       # What read queue length does an incoming req see
system.mem_ctrl.rdQLenPdf::28                       0                       # What read queue length does an incoming req see
system.mem_ctrl.rdQLenPdf::29                       0                       # What read queue length does an incoming req see
system.mem_ctrl.rdQLenPdf::30                       0                       # What read queue length does an incoming req see
system.mem_ctrl.rdQLenPdf::31                       0                       # What read queue length does an incoming req see
system.mem_ctrl.wrQLenPdf::0                        0                       # What write queue length does an incoming req see
system.mem_ctrl.wrQLenPdf::1                        0                       # What write queue length does an incoming req see
system.mem_ctrl.wrQLenPdf::2                        0                       # What write queue length does an incoming req see
system.mem_ctrl.wrQLenPdf::3                        0                       # What write queue length does an incoming req see
system.mem_ctrl.wrQLenPdf::4                        0                       # What write queue length does an incoming req see
system.mem_ctrl.wrQLenPdf::5                        0                       # What write queue length does an incoming req see
system.mem_ctrl.wrQLenPdf::6                        0                       # What write queue length does an incoming req see
system.mem_ctrl.wrQLenPdf::7                        0                       # What write queue length does an incoming req see
system.mem_ctrl.wrQLenPdf::8                        0                       # What write queue length does an incoming req see
system.mem_ctrl.wrQLenPdf::9                        0                       # What write queue length does an incoming req see
system.mem_ctrl.wrQLenPdf::10                       0                       # What write queue length does an incoming req see
system.mem_ctrl.wrQLenPdf::11                       0                       # What write queue length does an incoming req see
system.mem_ctrl.wrQLenPdf::12                       0                       # What write queue length does an incoming req see
system.mem_ctrl.wrQLenPdf::13                       0                       # What write queue length does an incoming req see
system.mem_ctrl.wrQLenPdf::14                       0                       # What write queue length does an incoming req see
system.mem_ctrl.wrQLenPdf::15                       0                       # What write queue length does an incoming req see
system.mem_ctrl.wrQLenPdf::16                       0                       # What write queue length does an incoming req see
system.mem_ctrl.wrQLenPdf::17                       0                       # What write queue length does an incoming req see
system.mem_ctrl.wrQLenPdf::18                       0                       # What write queue length does an incoming req see
system.mem_ctrl.wrQLenPdf::19                       0                       # What write queue length does an incoming req see
system.mem_ctrl.wrQLenPdf::20                       0                       # What write queue length does an incoming req see
system.mem_ctrl.wrQLenPdf::21                       0                       # What write queue length does an incoming req see
system.mem_ctrl.wrQLenPdf::22                       0                       # What write queue length does an incoming req see
system.mem_ctrl.wrQLenPdf::23                       0                       # What write queue length does an incoming req see
system.mem_ctrl.wrQLenPdf::24                       0                       # What write queue length does an incoming req see
system.mem_ctrl.wrQLenPdf::25                       0                       # What write queue length does an incoming req see
system.mem_ctrl.wrQLenPdf::26                       0                       # What write queue length does an incoming req see
system.mem_ctrl.wrQLenPdf::27                       0                       # What write queue length does an incoming req see
system.mem_ctrl.wrQLenPdf::28                       0                       # What write queue length does an incoming req see
system.mem_ctrl.wrQLenPdf::29                       0                       # What write queue length does an incoming req see
system.mem_ctrl.wrQLenPdf::30                       0                       # What write queue length does an incoming req see
system.mem_ctrl.wrQLenPdf::31                       0                       # What write queue length does an incoming req see
system.mem_ctrl.wrQLenPdf::32                       0                       # What write queue length does an incoming req see
system.mem_ctrl.wrQLenPdf::33                       0                       # What write queue length does an incoming req see
system.mem_ctrl.wrQLenPdf::34                       0                       # What write queue length does an incoming req see
system.mem_ctrl.wrQLenPdf::35                       0                       # What write queue length does an incoming req see
system.mem_ctrl.wrQLenPdf::36                       0                       # What write queue length does an incoming req see
system.mem_ctrl.wrQLenPdf::37                       0                       # What write queue length does an incoming req see
system.mem_ctrl.wrQLenPdf::38                       0                       # What write queue length does an incoming req see
system.mem_ctrl.wrQLenPdf::39                       0                       # What write queue length does an incoming req see
system.mem_ctrl.wrQLenPdf::40                       0                       # What write queue length does an incoming req see
system.mem_ctrl.wrQLenPdf::41                       0                       # What write queue length does an incoming req see
system.mem_ctrl.wrQLenPdf::42                       0                       # What write queue length does an incoming req see
system.mem_ctrl.wrQLenPdf::43                       0                       # What write queue length does an incoming req see
system.mem_ctrl.wrQLenPdf::44                       0                       # What write queue length does an incoming req see
system.mem_ctrl.wrQLenPdf::45                       0                       # What write queue length does an incoming req see
system.mem_ctrl.wrQLenPdf::46                       0                       # What write queue length does an incoming req see
system.mem_ctrl.wrQLenPdf::47                       0                       # What write queue length does an incoming req see
system.mem_ctrl.wrQLenPdf::48                       0                       # What write queue length does an incoming req see
system.mem_ctrl.wrQLenPdf::49                       0                       # What write queue length does an incoming req see
system.mem_ctrl.wrQLenPdf::50                       0                       # What write queue length does an incoming req see
system.mem_ctrl.wrQLenPdf::51                       0                       # What write queue length does an incoming req see
system.mem_ctrl.wrQLenPdf::52                       0                       # What write queue length does an incoming req see
system.mem_ctrl.wrQLenPdf::53                       0                       # What write queue length does an incoming req see
system.mem_ctrl.wrQLenPdf::54                       0                       # What write queue length does an incoming req see
system.mem_ctrl.wrQLenPdf::55                       0                       # What write queue length does an incoming req see
system.mem_ctrl.wrQLenPdf::56                       0                       # What write queue length does an incoming req see
system.mem_ctrl.wrQLenPdf::57                       0                       # What write queue length does an incoming req see
system.mem_ctrl.wrQLenPdf::58                       0                       # What write queue length does an incoming req see
system.mem_ctrl.wrQLenPdf::59                       0                       # What write queue length does an incoming req see
system.mem_ctrl.wrQLenPdf::60                       0                       # What write queue length does an incoming req see
system.mem_ctrl.wrQLenPdf::61                       0                       # What write queue length does an incoming req see
system.mem_ctrl.wrQLenPdf::62                       0                       # What write queue length does an incoming req see
system.mem_ctrl.wrQLenPdf::63                       0                       # What write queue length does an incoming req see
system.mem_ctrl.bytesPerActivate::samples          825                       # Bytes accessed per row activation
system.mem_ctrl.bytesPerActivate::mean     270.739394                       # Bytes accessed per row activation
system.mem_ctrl.bytesPerActivate::gmean    162.130988                       # Bytes accessed per row activation
system.mem_ctrl.bytesPerActivate::stdev    301.856459                       # Bytes accessed per row activation
system.mem_ctrl.bytesPerActivate::0-127           341     41.33%     41.33% # Bytes accessed per row activation
system.mem_ctrl.bytesPerActivate::128-255          197     23.88%     65.21% # Bytes accessed per row activation
system.mem_ctrl.bytesPerActivate::256-383           94     11.39%     76.61% # Bytes accessed per row activation
system.mem_ctrl.bytesPerActivate::384-511           49      5.94%     82.55% # Bytes accessed per row activation
system.mem_ctrl.bytesPerActivate::512-639           22      2.67%     85.21% # Bytes accessed per row activation
system.mem_ctrl.bytesPerActivate::640-767           16      1.94%     87.15% # Bytes accessed per row activation
system.mem_ctrl.bytesPerActivate::768-895           16      1.94%     89.09% # Bytes accessed per row activation
system.mem_ctrl.bytesPerActivate::896-1023           24      2.91%     92.00% # Bytes accessed per row activation
system.mem_ctrl.bytesPerActivate::1024-1151           66      8.00%    100.00% # Bytes accessed per row activation
system.mem_ctrl.bytesPerActivate::total           825                       # Bytes accessed per row activation
system.mem_ctrl.totQLat                      50310000                       # Total ticks spent queuing
system.mem_ctrl.totMemAccLat                116047500                       # Total ticks spent from burst creation until serviced by the DRAM
system.mem_ctrl.totBusLat                    17530000                       # Total ticks spent in databus transfers
system.mem_ctrl.avgQLat                      14349.69                       # Average queueing delay per DRAM burst
system.mem_ctrl.avgBusLat                     5000.00                       # Average bus latency per DRAM burst
system.mem_ctrl.avgMemAccLat                 33099.69                       # Average memory access latency per DRAM burst
system.mem_ctrl.avgRdBW                          6.23                       # Average DRAM read bandwidth in MiByte/s
system.mem_ctrl.avgWrBW                          0.00                       # Average achieved write bandwidth in MiByte/s
system.mem_ctrl.avgRdBWSys                       6.23                       # Average system read bandwidth in MiByte/s
system.mem_ctrl.avgWrBWSys                       0.00                       # Average system write bandwidth in MiByte/s
system.mem_ctrl.peakBW                       12800.00                       # Theoretical peak bandwidth in MiByte/s
system.mem_ctrl.busUtil                          0.05                       # Data bus utilization in percentage
system.mem_ctrl.busUtilRead                      0.05                       # Data bus utilization in percentage for reads
system.mem_ctrl.busUtilWrite                     0.00                       # Data bus utilization in percentage for writes
system.mem_ctrl.avgRdQLen                        1.00                       # Average read queue length when enqueuing
system.mem_ctrl.avgWrQLen                        0.00                       # Average write queue length when enqueuing
system.mem_ctrl.readRowHits                      2674                       # Number of row buffer hits during reads
system.mem_ctrl.writeRowHits                        0                       # Number of row buffer hits during writes
system.mem_ctrl.readRowHitRate                  76.27                       # Row buffer hit rate for reads
system.mem_ctrl.writeRowHitRate                   nan                       # Row buffer hit rate for writes
system.mem_ctrl.avgGap                    10278711.92                       # Average gap between requests
system.mem_ctrl.pageHitRate                     76.27                       # Row buffer hit rate, read and write combined
system.mem_ctrl_0.actEnergy                   3727080                       # Energy for activate commands per rank (pJ)
system.mem_ctrl_0.preEnergy                   1969605                       # Energy for precharge commands per rank (pJ)
system.mem_ctrl_0.readEnergy                 13209000                       # Energy for read commands per rank (pJ)
system.mem_ctrl_0.writeEnergy                       0                       # Energy for write commands per rank (pJ)
system.mem_ctrl_0.refreshEnergy          126001200.000000                       # Energy for refresh commands per rank (pJ)
system.mem_ctrl_0.actBackEnergy              48151320                       # Energy for active background per rank (pJ)
system.mem_ctrl_0.preBackEnergy               3124800                       # Energy for precharge background per rank (pJ)
system.mem_ctrl_0.actPowerDownEnergy        473503560                       # Energy for active power-down per rank (pJ)
system.mem_ctrl_0.prePowerDownEnergy        160135200                       # Energy for precharge power-down per rank (pJ)
system.mem_ctrl_0.selfRefreshEnergy        8274561060                       # Energy for self refresh per rank (pJ)
system.mem_ctrl_0.totalEnergy              9104382825                       # Total energy per rank (pJ)
system.mem_ctrl_0.averagePower             252.637972                       # Core power per rank (mW)
system.mem_ctrl_0.totalIdleTime           35923187750                       # Total Idle time Per DRAM Rank
system.mem_ctrl_0.memoryStateTime::IDLE       2315000                       # Time in different power states
system.mem_ctrl_0.memoryStateTime::REF       53324000                       # Time in different power states
system.mem_ctrl_0.memoryStateTime::SREF   34468134750                       # Time in different power states
system.mem_ctrl_0.memoryStateTime::PRE_PDN    416984250                       # Time in different power states
system.mem_ctrl_0.memoryStateTime::ACT       58037000                       # Time in different power states
system.mem_ctrl_0.memoryStateTime::ACT_PDN   1038474000                       # Time in different power states
system.mem_ctrl_1.actEnergy                   2213400                       # Energy for activate commands per rank (pJ)
system.mem_ctrl_1.preEnergy                   1161270                       # Energy for precharge commands per rank (pJ)
system.mem_ctrl_1.readEnergy                 11823840                       # Energy for read commands per rank (pJ)
system.mem_ctrl_1.writeEnergy                       0                       # Energy for write commands per rank (pJ)
system.mem_ctrl_1.refreshEnergy          70683600.000000                       # Energy for refresh commands per rank (pJ)
system.mem_ctrl_1.actBackEnergy              33848880                       # Energy for active background per rank (pJ)
system.mem_ctrl_1.preBackEnergy               4923840                       # Energy for precharge background per rank (pJ)
system.mem_ctrl_1.actPowerDownEnergy        324036450                       # Energy for active power-down per rank (pJ)
system.mem_ctrl_1.prePowerDownEnergy         33843840                       # Energy for precharge power-down per rank (pJ)
system.mem_ctrl_1.selfRefreshEnergy        8437458780                       # Energy for self refresh per rank (pJ)
system.mem_ctrl_1.totalEnergy              8919993900                       # Total energy per rank (pJ)
system.mem_ctrl_1.averagePower             247.521355                       # Core power per rank (mW)
system.mem_ctrl_1.totalIdleTime           35950182250                       # Total Idle time Per DRAM Rank
system.mem_ctrl_1.memoryStateTime::IDLE       9178250                       # Time in different power states
system.mem_ctrl_1.memoryStateTime::REF       29912000                       # Time in different power states
system.mem_ctrl_1.memoryStateTime::SREF   35151476500                       # Time in different power states
system.mem_ctrl_1.memoryStateTime::PRE_PDN     88122500                       # Time in different power states
system.mem_ctrl_1.memoryStateTime::ACT       47939250                       # Time in different power states
system.mem_ctrl_1.memoryStateTime::ACT_PDN    710640500                       # Time in different power states
system.pwrStateResidencyTicks::UNDEFINED  36037269000                       # Cumulative time (in ticks) in various power states
system.cpu.dtb.walker.pwrStateResidencyTicks::UNDEFINED  36037269000                       # Cumulative time (in ticks) in various power states
system.cpu.apic_clk_domain.clock                16000                       # Clock period in ticks
system.cpu.interrupts.pwrStateResidencyTicks::UNDEFINED  36037269000                       # Cumulative time (in ticks) in various power states
system.cpu.itb.walker.pwrStateResidencyTicks::UNDEFINED  36037269000                       # Cumulative time (in ticks) in various power states
system.cpu.workload.numSyscalls                    76                       # Number of system calls
system.cpu.pwrStateResidencyTicks::ON     36037269000                       # Cumulative time (in ticks) in various power states
system.cpu.numCycles                         36037269                       # number of cpu cycles simulated
system.cpu.numWorkItemsStarted                      0                       # number of work items this cpu started
system.cpu.numWorkItemsCompleted                    0                       # number of work items this cpu completed
system.cpu.committedInsts                    12085629                       # Number of instructions committed
system.cpu.committedOps                      15715369                       # Number of ops (including micro ops) committed
system.cpu.num_int_alu_accesses              14770876                       # Number of integer alu accesses
system.cpu.num_fp_alu_accesses                2255477                       # Number of float alu accesses
system.cpu.num_func_calls                       11632                       # number of times a function call or return occured
system.cpu.num_conditional_control_insts       477934                       # number of instructions that are conditional controls
system.cpu.num_int_insts                     14770876                       # number of integer instructions
system.cpu.num_fp_insts                       2255477                       # number of float instructions
system.cpu.num_int_register_reads            34273244                       # number of times the integer registers were read
system.cpu.num_int_register_writes           12587729                       # number of times the integer registers were written
system.cpu.num_fp_register_reads              2189669                       # number of times the floating registers were read
system.cpu.num_fp_register_writes             1942688                       # number of times the floating registers were written
system.cpu.num_cc_register_reads              5849187                       # number of times the CC registers were read
system.cpu.num_cc_register_writes            10818019                       # number of times the CC registers were written
system.cpu.num_mem_refs                       2440490                       # number of memory refs
system.cpu.num_load_insts                     1774377                       # Number of load instructions
system.cpu.num_store_insts                     666113                       # Number of store instructions
system.cpu.num_idle_cycles                          0                       # Number of idle cycles
system.cpu.num_busy_cycles                   36037269                       # Number of busy cycles
system.cpu.not_idle_fraction                        1                       # Percentage of non-idle cycles
system.cpu.idle_fraction                            0                       # Percentage of idle cycles
system.cpu.Branches                            516088                       # Number of branches fetched
system.cpu.op_class::No_OpClass                  6478      0.04%      0.04% # Class of executed instruction
system.cpu.op_class::IntAlu                  12328577     78.45%     78.49% # Class of executed instruction
system.cpu.op_class::IntMult                       52      0.00%     78.49% # Class of executed instruction
system.cpu.op_class::IntDiv                      1511      0.01%     78.50% # Class of executed instruction
system.cpu.op_class::FloatAdd                  938261      5.97%     84.47% # Class of executed instruction
system.cpu.op_class::FloatCmp                       0      0.00%     84.47% # Class of executed instruction
system.cpu.op_class::FloatCvt                       0      0.00%     84.47% # Class of executed instruction
system.cpu.op_class::FloatMult                      0      0.00%     84.47% # Class of executed instruction
system.cpu.op_class::FloatMultAcc                   0      0.00%     84.47% # Class of executed instruction
system.cpu.op_class::FloatDiv                       0      0.00%     84.47% # Class of executed instruction
system.cpu.op_class::FloatMisc                      0      0.00%     84.47% # Class of executed instruction
system.cpu.op_class::FloatSqrt                      0      0.00%     84.47% # Class of executed instruction
system.cpu.op_class::SimdAdd                        0      0.00%     84.47% # Class of executed instruction
system.cpu.op_class::SimdAddAcc                     0      0.00%     84.47% # Class of executed instruction
system.cpu.op_class::SimdAlu                        0      0.00%     84.47% # Class of executed instruction
system.cpu.op_class::SimdCmp                        0      0.00%     84.47% # Class of executed instruction
system.cpu.op_class::SimdCvt                        0      0.00%     84.47% # Class of executed instruction
system.cpu.op_class::SimdMisc                       0      0.00%     84.47% # Class of executed instruction
system.cpu.op_class::SimdMult                       0      0.00%     84.47% # Class of executed instruction
system.cpu.op_class::SimdMultAcc                    0      0.00%     84.47% # Class of executed instruction
system.cpu.op_class::SimdShift                      0      0.00%     84.47% # Class of executed instruction
system.cpu.op_class::SimdShiftAcc                   0      0.00%     84.47% # Class of executed instruction
system.cpu.op_class::SimdSqrt                       0      0.00%     84.47% # Class of executed instruction
system.cpu.op_class::SimdFloatAdd                   0      0.00%     84.47% # Class of executed instruction
system.cpu.op_class::SimdFloatAlu                   0      0.00%     84.47% # Class of executed instruction
system.cpu.op_class::SimdFloatCmp                   0      0.00%     84.47% # Class of executed instruction
system.cpu.op_class::SimdFloatCvt                   0      0.00%     84.47% # Class of executed instruction
system.cpu.op_class::SimdFloatDiv                   0      0.00%     84.47% # Class of executed instruction
system.cpu.op_class::SimdFloatMisc                  0      0.00%     84.47% # Class of executed instruction
system.cpu.op_class::SimdFloatMult                  0      0.00%     84.47% # Class of executed instruction
system.cpu.op_class::SimdFloatMultAcc               0      0.00%     84.47% # Class of executed instruction
system.cpu.op_class::SimdFloatSqrt                  0      0.00%     84.47% # Class of executed instruction
system.cpu.op_class::MemRead                   769563      4.90%     89.37% # Class of executed instruction
system.cpu.op_class::MemWrite                  353785      2.25%     91.62% # Class of executed instruction
system.cpu.op_class::FloatMemRead             1004814      6.39%     98.01% # Class of executed instruction
system.cpu.op_class::FloatMemWrite             312328      1.99%    100.00% # Class of executed instruction
system.cpu.op_class::IprAccess                      0      0.00%    100.00% # Class of executed instruction
system.cpu.op_class::InstPrefetch                   0      0.00%    100.00% # Class of executed instruction
system.cpu.op_class::total                   15715369                       # Class of executed instruction
system.cpu.dcache.tags.pwrStateResidencyTicks::UNDEFINED  36037269000                       # Cumulative time (in ticks) in various power states
system.cpu.dcache.tags.replacements              1798                       # number of replacements
system.cpu.dcache.tags.tagsinuse          1018.654881                       # Cycle average of tags in use
system.cpu.dcache.tags.total_refs             2437673                       # Total number of references to valid blocks.
system.cpu.dcache.tags.sampled_refs              2822                       # Sample count of references to valid blocks.
system.cpu.dcache.tags.avg_refs            863.810418                       # Average number of references to valid blocks.
system.cpu.dcache.tags.warmup_cycle         740643000                       # Cycle when the warmup percentage was hit.
system.cpu.dcache.tags.occ_blocks::cpu.data  1018.654881                       # Average occupied blocks per requestor
system.cpu.dcache.tags.occ_percent::cpu.data     0.994780                       # Average percentage of cache occupancy
system.cpu.dcache.tags.occ_percent::total     0.994780                       # Average percentage of cache occupancy
system.cpu.dcache.tags.occ_task_id_blocks::1024         1024                       # Occupied blocks per task id
system.cpu.dcache.tags.age_task_id_blocks_1024::0           31                       # Occupied blocks per task id
system.cpu.dcache.tags.age_task_id_blocks_1024::1           41                       # Occupied blocks per task id
system.cpu.dcache.tags.age_task_id_blocks_1024::4          952                       # Occupied blocks per task id
system.cpu.dcache.tags.occ_task_id_percent::1024            1                       # Percentage of cache occupancy per task id
system.cpu.dcache.tags.tag_accesses           4883812                       # Number of tag accesses
system.cpu.dcache.tags.data_accesses          4883812                       # Number of data accesses
system.cpu.dcache.pwrStateResidencyTicks::UNDEFINED  36037269000                       # Cumulative time (in ticks) in various power states
system.cpu.dcache.ReadReq_hits::cpu.data      1772090                       # number of ReadReq hits
system.cpu.dcache.ReadReq_hits::total         1772090                       # number of ReadReq hits
system.cpu.dcache.WriteReq_hits::cpu.data       665583                       # number of WriteReq hits
system.cpu.dcache.WriteReq_hits::total         665583                       # number of WriteReq hits
system.cpu.dcache.demand_hits::cpu.data       2437673                       # number of demand (read+write) hits
system.cpu.dcache.demand_hits::total          2437673                       # number of demand (read+write) hits
system.cpu.dcache.overall_hits::cpu.data      2437673                       # number of overall hits
system.cpu.dcache.overall_hits::total         2437673                       # number of overall hits
system.cpu.dcache.ReadReq_misses::cpu.data         2290                       # number of ReadReq misses
system.cpu.dcache.ReadReq_misses::total          2290                       # number of ReadReq misses
system.cpu.dcache.WriteReq_misses::cpu.data          532                       # number of WriteReq misses
system.cpu.dcache.WriteReq_misses::total          532                       # number of WriteReq misses
system.cpu.dcache.demand_misses::cpu.data         2822                       # number of demand (read+write) misses
system.cpu.dcache.demand_misses::total           2822                       # number of demand (read+write) misses
system.cpu.dcache.overall_misses::cpu.data         2822                       # number of overall misses
system.cpu.dcache.overall_misses::total          2822                       # number of overall misses
system.cpu.dcache.ReadReq_miss_latency::cpu.data    225142000                       # number of ReadReq miss cycles
system.cpu.dcache.ReadReq_miss_latency::total    225142000                       # number of ReadReq miss cycles
system.cpu.dcache.WriteReq_miss_latency::cpu.data     54170000                       # number of WriteReq miss cycles
system.cpu.dcache.WriteReq_miss_latency::total     54170000                       # number of WriteReq miss cycles
system.cpu.dcache.demand_miss_latency::cpu.data    279312000                       # number of demand (read+write) miss cycles
system.cpu.dcache.demand_miss_latency::total    279312000                       # number of demand (read+write) miss cycles
system.cpu.dcache.overall_miss_latency::cpu.data    279312000                       # number of overall miss cycles
system.cpu.dcache.overall_miss_latency::total    279312000                       # number of overall miss cycles
system.cpu.dcache.ReadReq_accesses::cpu.data      1774380                       # number of ReadReq accesses(hits+misses)
system.cpu.dcache.ReadReq_accesses::total      1774380                       # number of ReadReq accesses(hits+misses)
system.cpu.dcache.WriteReq_accesses::cpu.data       666115                       # number of WriteReq accesses(hits+misses)
system.cpu.dcache.WriteReq_accesses::total       666115                       # number of WriteReq accesses(hits+misses)
system.cpu.dcache.demand_accesses::cpu.data      2440495                       # number of demand (read+write) accesses
system.cpu.dcache.demand_accesses::total      2440495                       # number of demand (read+write) accesses
system.cpu.dcache.overall_accesses::cpu.data      2440495                       # number of overall (read+write) accesses
system.cpu.dcache.overall_accesses::total      2440495                       # number of overall (read+write) accesses
system.cpu.dcache.ReadReq_miss_rate::cpu.data     0.001291                       # miss rate for ReadReq accesses
system.cpu.dcache.ReadReq_miss_rate::total     0.001291                       # miss rate for ReadReq accesses
system.cpu.dcache.WriteReq_miss_rate::cpu.data     0.000799                       # miss rate for WriteReq accesses
system.cpu.dcache.WriteReq_miss_rate::total     0.000799                       # miss rate for WriteReq accesses
system.cpu.dcache.demand_miss_rate::cpu.data     0.001156                       # miss rate for demand accesses
system.cpu.dcache.demand_miss_rate::total     0.001156                       # miss rate for demand accesses
system.cpu.dcache.overall_miss_rate::cpu.data     0.001156                       # miss rate for overall accesses
system.cpu.dcache.overall_miss_rate::total     0.001156                       # miss rate for overall accesses
system.cpu.dcache.ReadReq_avg_miss_latency::cpu.data 98315.283843                       # average ReadReq miss latency
system.cpu.dcache.ReadReq_avg_miss_latency::total 98315.283843                       # average ReadReq miss latency
system.cpu.dcache.WriteReq_avg_miss_latency::cpu.data 101823.308271                       # average WriteReq miss latency
system.cpu.dcache.WriteReq_avg_miss_latency::total 101823.308271                       # average WriteReq miss latency
system.cpu.dcache.demand_avg_miss_latency::cpu.data 98976.612332                       # average overall miss latency
system.cpu.dcache.demand_avg_miss_latency::total 98976.612332                       # average overall miss latency
system.cpu.dcache.overall_avg_miss_latency::cpu.data 98976.612332                       # average overall miss latency
system.cpu.dcache.overall_avg_miss_latency::total 98976.612332                       # average overall miss latency
system.cpu.dcache.blocked_cycles::no_mshrs            0                       # number of cycles access was blocked
system.cpu.dcache.blocked_cycles::no_targets            0                       # number of cycles access was blocked
system.cpu.dcache.blocked::no_mshrs                 0                       # number of cycles access was blocked
system.cpu.dcache.blocked::no_targets               0                       # number of cycles access was blocked
system.cpu.dcache.avg_blocked_cycles::no_mshrs          nan                       # average number of cycles each access was blocked
system.cpu.dcache.avg_blocked_cycles::no_targets          nan                       # average number of cycles each access was blocked
system.cpu.dcache.writebacks::writebacks          575                       # number of writebacks
system.cpu.dcache.writebacks::total               575                       # number of writebacks
system.cpu.dcache.ReadReq_mshr_misses::cpu.data         2290                       # number of ReadReq MSHR misses
system.cpu.dcache.ReadReq_mshr_misses::total         2290                       # number of ReadReq MSHR misses
system.cpu.dcache.WriteReq_mshr_misses::cpu.data          532                       # number of WriteReq MSHR misses
system.cpu.dcache.WriteReq_mshr_misses::total          532                       # number of WriteReq MSHR misses
system.cpu.dcache.demand_mshr_misses::cpu.data         2822                       # number of demand (read+write) MSHR misses
system.cpu.dcache.demand_mshr_misses::total         2822                       # number of demand (read+write) MSHR misses
system.cpu.dcache.overall_mshr_misses::cpu.data         2822                       # number of overall MSHR misses
system.cpu.dcache.overall_mshr_misses::total         2822                       # number of overall MSHR misses
system.cpu.dcache.ReadReq_mshr_miss_latency::cpu.data    220562000                       # number of ReadReq MSHR miss cycles
system.cpu.dcache.ReadReq_mshr_miss_latency::total    220562000                       # number of ReadReq MSHR miss cycles
system.cpu.dcache.WriteReq_mshr_miss_latency::cpu.data     53106000                       # number of WriteReq MSHR miss cycles
system.cpu.dcache.WriteReq_mshr_miss_latency::total     53106000                       # number of WriteReq MSHR miss cycles
system.cpu.dcache.demand_mshr_miss_latency::cpu.data    273668000                       # number of demand (read+write) MSHR miss cycles
system.cpu.dcache.demand_mshr_miss_latency::total    273668000                       # number of demand (read+write) MSHR miss cycles
system.cpu.dcache.overall_mshr_miss_latency::cpu.data    273668000                       # number of overall MSHR miss cycles
system.cpu.dcache.overall_mshr_miss_latency::total    273668000                       # number of overall MSHR miss cycles
system.cpu.dcache.ReadReq_mshr_miss_rate::cpu.data     0.001291                       # mshr miss rate for ReadReq accesses
system.cpu.dcache.ReadReq_mshr_miss_rate::total     0.001291                       # mshr miss rate for ReadReq accesses
system.cpu.dcache.WriteReq_mshr_miss_rate::cpu.data     0.000799                       # mshr miss rate for WriteReq accesses
system.cpu.dcache.WriteReq_mshr_miss_rate::total     0.000799                       # mshr miss rate for WriteReq accesses
system.cpu.dcache.demand_mshr_miss_rate::cpu.data     0.001156                       # mshr miss rate for demand accesses
system.cpu.dcache.demand_mshr_miss_rate::total     0.001156                       # mshr miss rate for demand accesses
system.cpu.dcache.overall_mshr_miss_rate::cpu.data     0.001156                       # mshr miss rate for overall accesses
system.cpu.dcache.overall_mshr_miss_rate::total     0.001156                       # mshr miss rate for overall accesses
system.cpu.dcache.ReadReq_avg_mshr_miss_latency::cpu.data 96315.283843                       # average ReadReq mshr miss latency
system.cpu.dcache.ReadReq_avg_mshr_miss_latency::total 96315.283843                       # average ReadReq mshr miss latency
system.cpu.dcache.WriteReq_avg_mshr_miss_latency::cpu.data 99823.308271                       # average WriteReq mshr miss latency
system.cpu.dcache.WriteReq_avg_mshr_miss_latency::total 99823.308271                       # average WriteReq mshr miss latency
system.cpu.dcache.demand_avg_mshr_miss_latency::cpu.data 96976.612332                       # average overall mshr miss latency
system.cpu.dcache.demand_avg_mshr_miss_latency::total 96976.612332                       # average overall mshr miss latency
system.cpu.dcache.overall_avg_mshr_miss_latency::cpu.data 96976.612332                       # average overall mshr miss latency
system.cpu.dcache.overall_avg_mshr_miss_latency::total 96976.612332                       # average overall mshr miss latency
system.cpu.icache.tags.pwrStateResidencyTicks::UNDEFINED  36037269000                       # Cumulative time (in ticks) in various power states
system.cpu.icache.tags.replacements               252                       # number of replacements
system.cpu.icache.tags.tagsinuse           672.681107                       # Cycle average of tags in use
system.cpu.icache.tags.total_refs            15384650                       # Total number of references to valid blocks.
system.cpu.icache.tags.sampled_refs              1031                       # Sample count of references to valid blocks.
system.cpu.icache.tags.avg_refs          14922.065955                       # Average number of references to valid blocks.
system.cpu.icache.tags.warmup_cycle                 0                       # Cycle when the warmup percentage was hit.
system.cpu.icache.tags.occ_blocks::cpu.inst   672.681107                       # Average occupied blocks per requestor
system.cpu.icache.tags.occ_percent::cpu.inst     0.656915                       # Average percentage of cache occupancy
system.cpu.icache.tags.occ_percent::total     0.656915                       # Average percentage of cache occupancy
system.cpu.icache.tags.occ_task_id_blocks::1024          779                       # Occupied blocks per task id
system.cpu.icache.tags.age_task_id_blocks_1024::0           54                       # Occupied blocks per task id
system.cpu.icache.tags.age_task_id_blocks_1024::1          165                       # Occupied blocks per task id
system.cpu.icache.tags.age_task_id_blocks_1024::2           11                       # Occupied blocks per task id
system.cpu.icache.tags.age_task_id_blocks_1024::4          549                       # Occupied blocks per task id
system.cpu.icache.tags.occ_task_id_percent::1024     0.760742                       # Percentage of cache occupancy per task id
system.cpu.icache.tags.tag_accesses          30772393                       # Number of tag accesses
system.cpu.icache.tags.data_accesses         30772393                       # Number of data accesses
system.cpu.icache.pwrStateResidencyTicks::UNDEFINED  36037269000                       # Cumulative time (in ticks) in various power states
system.cpu.icache.ReadReq_hits::cpu.inst     15384650                       # number of ReadReq hits
system.cpu.icache.ReadReq_hits::total        15384650                       # number of ReadReq hits
system.cpu.icache.demand_hits::cpu.inst      15384650                       # number of demand (read+write) hits
system.cpu.icache.demand_hits::total         15384650                       # number of demand (read+write) hits
system.cpu.icache.overall_hits::cpu.inst     15384650                       # number of overall hits
system.cpu.icache.overall_hits::total        15384650                       # number of overall hits
system.cpu.icache.ReadReq_misses::cpu.inst         1031                       # number of ReadReq misses
system.cpu.icache.ReadReq_misses::total          1031                       # number of ReadReq misses
system.cpu.icache.demand_misses::cpu.inst         1031                       # number of demand (read+write) misses
system.cpu.icache.demand_misses::total           1031                       # number of demand (read+write) misses
system.cpu.icache.overall_misses::cpu.inst         1031                       # number of overall misses
system.cpu.icache.overall_misses::total          1031                       # number of overall misses
system.cpu.icache.ReadReq_miss_latency::cpu.inst    113321000                       # number of ReadReq miss cycles
system.cpu.icache.ReadReq_miss_latency::total    113321000                       # number of ReadReq miss cycles
system.cpu.icache.demand_miss_latency::cpu.inst    113321000                       # number of demand (read+write) miss cycles
system.cpu.icache.demand_miss_latency::total    113321000                       # number of demand (read+write) miss cycles
system.cpu.icache.overall_miss_latency::cpu.inst    113321000                       # number of overall miss cycles
system.cpu.icache.overall_miss_latency::total    113321000                       # number of overall miss cycles
system.cpu.icache.ReadReq_accesses::cpu.inst     15385681                       # number of ReadReq accesses(hits+misses)
system.cpu.icache.ReadReq_accesses::total     15385681                       # number of ReadReq accesses(hits+misses)
system.cpu.icache.demand_accesses::cpu.inst     15385681                       # number of demand (read+write) accesses
system.cpu.icache.demand_accesses::total     15385681                       # number of demand (read+write) accesses
system.cpu.icache.overall_accesses::cpu.inst     15385681                       # number of overall (read+write) accesses
system.cpu.icache.overall_accesses::total     15385681                       # number of overall (read+write) accesses
system.cpu.icache.ReadReq_miss_rate::cpu.inst     0.000067                       # miss rate for ReadReq accesses
system.cpu.icache.ReadReq_miss_rate::total     0.000067                       # miss rate for ReadReq accesses
system.cpu.icache.demand_miss_rate::cpu.inst     0.000067                       # miss rate for demand accesses
system.cpu.icache.demand_miss_rate::total     0.000067                       # miss rate for demand accesses
system.cpu.icache.overall_miss_rate::cpu.inst     0.000067                       # miss rate for overall accesses
system.cpu.icache.overall_miss_rate::total     0.000067                       # miss rate for overall accesses
system.cpu.icache.ReadReq_avg_miss_latency::cpu.inst 109913.676043                       # average ReadReq miss latency
system.cpu.icache.ReadReq_avg_miss_latency::total 109913.676043                       # average ReadReq miss latency
system.cpu.icache.demand_avg_miss_latency::cpu.inst 109913.676043                       # average overall miss latency
system.cpu.icache.demand_avg_miss_latency::total 109913.676043                       # average overall miss latency
system.cpu.icache.overall_avg_miss_latency::cpu.inst 109913.676043                       # average overall miss latency
system.cpu.icache.overall_avg_miss_latency::total 109913.676043                       # average overall miss latency
system.cpu.icache.blocked_cycles::no_mshrs            0                       # number of cycles access was blocked
system.cpu.icache.blocked_cycles::no_targets            0                       # number of cycles access was blocked
system.cpu.icache.blocked::no_mshrs                 0                       # number of cycles access was blocked
system.cpu.icache.blocked::no_targets               0                       # number of cycles access was blocked
system.cpu.icache.avg_blocked_cycles::no_mshrs          nan                       # average number of cycles each access was blocked
system.cpu.icache.avg_blocked_cycles::no_targets          nan                       # average number of cycles each access was blocked
system.cpu.icache.ReadReq_mshr_misses::cpu.inst         1031                       # number of ReadReq MSHR misses
system.cpu.icache.ReadReq_mshr_misses::total         1031                       # number of ReadReq MSHR misses
system.cpu.icache.demand_mshr_misses::cpu.inst         1031                       # number of demand (read+write) MSHR misses
system.cpu.icache.demand_mshr_misses::total         1031                       # number of demand (read+write) MSHR misses
system.cpu.icache.overall_mshr_misses::cpu.inst         1031                       # number of overall MSHR misses
system.cpu.icache.overall_mshr_misses::total         1031                       # number of overall MSHR misses
system.cpu.icache.ReadReq_mshr_miss_latency::cpu.inst    111259000                       # number of ReadReq MSHR miss cycles
system.cpu.icache.ReadReq_mshr_miss_latency::total    111259000                       # number of ReadReq MSHR miss cycles
system.cpu.icache.demand_mshr_miss_latency::cpu.inst    111259000                       # number of demand (read+write) MSHR miss cycles
system.cpu.icache.demand_mshr_miss_latency::total    111259000                       # number of demand (read+write) MSHR miss cycles
system.cpu.icache.overall_mshr_miss_latency::cpu.inst    111259000                       # number of overall MSHR miss cycles
system.cpu.icache.overall_mshr_miss_latency::total    111259000                       # number of overall MSHR miss cycles
system.cpu.icache.ReadReq_mshr_miss_rate::cpu.inst     0.000067                       # mshr miss rate for ReadReq accesses
system.cpu.icache.ReadReq_mshr_miss_rate::total     0.000067                       # mshr miss rate for ReadReq accesses
system.cpu.icache.demand_mshr_miss_rate::cpu.inst     0.000067                       # mshr miss rate for demand accesses
system.cpu.icache.demand_mshr_miss_rate::total     0.000067                       # mshr miss rate for demand accesses
system.cpu.icache.overall_mshr_miss_rate::cpu.inst     0.000067                       # mshr miss rate for overall accesses
system.cpu.icache.overall_mshr_miss_rate::total     0.000067                       # mshr miss rate for overall accesses
system.cpu.icache.ReadReq_avg_mshr_miss_latency::cpu.inst 107913.676043                       # average ReadReq mshr miss latency
system.cpu.icache.ReadReq_avg_mshr_miss_latency::total 107913.676043                       # average ReadReq mshr miss latency
system.cpu.icache.demand_avg_mshr_miss_latency::cpu.inst 107913.676043                       # average overall mshr miss latency
system.cpu.icache.demand_avg_mshr_miss_latency::total 107913.676043                       # average overall mshr miss latency
system.cpu.icache.overall_avg_mshr_miss_latency::cpu.inst 107913.676043                       # average overall mshr miss latency
system.cpu.icache.overall_avg_mshr_miss_latency::total 107913.676043                       # average overall mshr miss latency
system.l2bus.snoop_filter.tot_requests           5903                       # Total number of requests made to the snoop filter.
system.l2bus.snoop_filter.hit_single_requests         2051                       # Number of requests hitting in the snoop filter with a single holder of the requested data.
system.l2bus.snoop_filter.hit_multi_requests            4                       # Number of requests hitting in the snoop filter with multiple (>1) holders of the requested data.
system.l2bus.snoop_filter.tot_snoops                0                       # Total number of snoops made to the snoop filter.
system.l2bus.snoop_filter.hit_single_snoops            0                       # Number of snoops hitting in the snoop filter with a single holder of the requested data.
system.l2bus.snoop_filter.hit_multi_snoops            0                       # Number of snoops hitting in the snoop filter with multiple (>1) holders of the requested data.
system.l2bus.pwrStateResidencyTicks::UNDEFINED  36037269000                       # Cumulative time (in ticks) in various power states
system.l2bus.trans_dist::ReadResp                3321                       # Transaction distribution
system.l2bus.trans_dist::WritebackDirty           575                       # Transaction distribution
system.l2bus.trans_dist::CleanEvict              1475                       # Transaction distribution
system.l2bus.trans_dist::ReadExReq                532                       # Transaction distribution
system.l2bus.trans_dist::ReadExResp               532                       # Transaction distribution
system.l2bus.trans_dist::ReadSharedReq           3321                       # Transaction distribution
system.l2bus.pkt_count_system.cpu.icache.mem_side::system.l2cache.cpu_side         2314                       # Packet count per connected master and slave (bytes)
system.l2bus.pkt_count_system.cpu.dcache.mem_side::system.l2cache.cpu_side         7442                       # Packet count per connected master and slave (bytes)
system.l2bus.pkt_count::total                    9756                       # Packet count per connected master and slave (bytes)
system.l2bus.pkt_size_system.cpu.icache.mem_side::system.l2cache.cpu_side        65984                       # Cumulative packet size per connected master and slave (bytes)
system.l2bus.pkt_size_system.cpu.dcache.mem_side::system.l2cache.cpu_side       217408                       # Cumulative packet size per connected master and slave (bytes)
system.l2bus.pkt_size::total                   283392                       # Cumulative packet size per connected master and slave (bytes)
system.l2bus.snoops                                 0                       # Total snoops (count)
system.l2bus.snoopTraffic                           0                       # Total snoop traffic (bytes)
system.l2bus.snoop_fanout::samples               3853                       # Request fanout histogram
system.l2bus.snoop_fanout::mean              0.001298                       # Request fanout histogram
system.l2bus.snoop_fanout::stdev             0.036005                       # Request fanout histogram
system.l2bus.snoop_fanout::underflows               0      0.00%      0.00% # Request fanout histogram
system.l2bus.snoop_fanout::0                     3848     99.87%     99.87% # Request fanout histogram
system.l2bus.snoop_fanout::1                        5      0.13%    100.00% # Request fanout histogram
system.l2bus.snoop_fanout::2                        0      0.00%    100.00% # Request fanout histogram
system.l2bus.snoop_fanout::overflows                0      0.00%    100.00% # Request fanout histogram
system.l2bus.snoop_fanout::min_value                0                       # Request fanout histogram
system.l2bus.snoop_fanout::max_value                1                       # Request fanout histogram
system.l2bus.snoop_fanout::total                 3853                       # Request fanout histogram
system.l2bus.reqLayer0.occupancy              7053000                       # Layer occupancy (ticks)
system.l2bus.reqLayer0.utilization                0.0                       # Layer utilization (%)
system.l2bus.respLayer0.occupancy             3093000                       # Layer occupancy (ticks)
system.l2bus.respLayer0.utilization               0.0                       # Layer utilization (%)
system.l2bus.respLayer1.occupancy             8466000                       # Layer occupancy (ticks)
system.l2bus.respLayer1.utilization               0.0                       # Layer utilization (%)
system.l2cache.tags.pwrStateResidencyTicks::UNDEFINED  36037269000                       # Cumulative time (in ticks) in various power states
system.l2cache.tags.replacements                    0                       # number of replacements
system.l2cache.tags.tagsinuse             3227.779816                       # Cycle average of tags in use
system.l2cache.tags.total_refs                   2393                       # Total number of references to valid blocks.
system.l2cache.tags.sampled_refs                 3506                       # Sample count of references to valid blocks.
system.l2cache.tags.avg_refs                 0.682544                       # Average number of references to valid blocks.
system.l2cache.tags.warmup_cycle                    0                       # Cycle when the warmup percentage was hit.
system.l2cache.tags.occ_blocks::cpu.inst   791.666534                       # Average occupied blocks per requestor
system.l2cache.tags.occ_blocks::cpu.data  2436.113282                       # Average occupied blocks per requestor
system.l2cache.tags.occ_percent::cpu.inst     0.024160                       # Average percentage of cache occupancy
system.l2cache.tags.occ_percent::cpu.data     0.074344                       # Average percentage of cache occupancy
system.l2cache.tags.occ_percent::total       0.098504                       # Average percentage of cache occupancy
system.l2cache.tags.occ_task_id_blocks::1024         3506                       # Occupied blocks per task id
system.l2cache.tags.age_task_id_blocks_1024::0           54                       # Occupied blocks per task id
system.l2cache.tags.age_task_id_blocks_1024::1          179                       # Occupied blocks per task id
system.l2cache.tags.age_task_id_blocks_1024::2           11                       # Occupied blocks per task id
system.l2cache.tags.age_task_id_blocks_1024::4         3262                       # Occupied blocks per task id
system.l2cache.tags.occ_task_id_percent::1024     0.106995                       # Percentage of cache occupancy per task id
system.l2cache.tags.tag_accesses                50698                       # Number of tag accesses
system.l2cache.tags.data_accesses               50698                       # Number of data accesses
system.l2cache.pwrStateResidencyTicks::UNDEFINED  36037269000                       # Cumulative time (in ticks) in various power states
system.l2cache.WritebackDirty_hits::writebacks          575                       # number of WritebackDirty hits
system.l2cache.WritebackDirty_hits::total          575                       # number of WritebackDirty hits
system.l2cache.ReadExReq_hits::cpu.data            33                       # number of ReadExReq hits
system.l2cache.ReadExReq_hits::total               33                       # number of ReadExReq hits
system.l2cache.ReadSharedReq_hits::cpu.inst            9                       # number of ReadSharedReq hits
system.l2cache.ReadSharedReq_hits::cpu.data          305                       # number of ReadSharedReq hits
system.l2cache.ReadSharedReq_hits::total          314                       # number of ReadSharedReq hits
system.l2cache.demand_hits::cpu.inst                9                       # number of demand (read+write) hits
system.l2cache.demand_hits::cpu.data              338                       # number of demand (read+write) hits
system.l2cache.demand_hits::total                 347                       # number of demand (read+write) hits
system.l2cache.overall_hits::cpu.inst               9                       # number of overall hits
system.l2cache.overall_hits::cpu.data             338                       # number of overall hits
system.l2cache.overall_hits::total                347                       # number of overall hits
system.l2cache.ReadExReq_misses::cpu.data          499                       # number of ReadExReq misses
system.l2cache.ReadExReq_misses::total            499                       # number of ReadExReq misses
system.l2cache.ReadSharedReq_misses::cpu.inst         1022                       # number of ReadSharedReq misses
system.l2cache.ReadSharedReq_misses::cpu.data         1985                       # number of ReadSharedReq misses
system.l2cache.ReadSharedReq_misses::total         3007                       # number of ReadSharedReq misses
system.l2cache.demand_misses::cpu.inst           1022                       # number of demand (read+write) misses
system.l2cache.demand_misses::cpu.data           2484                       # number of demand (read+write) misses
system.l2cache.demand_misses::total              3506                       # number of demand (read+write) misses
system.l2cache.overall_misses::cpu.inst          1022                       # number of overall misses
system.l2cache.overall_misses::cpu.data          2484                       # number of overall misses
system.l2cache.overall_misses::total             3506                       # number of overall misses
system.l2cache.ReadExReq_miss_latency::cpu.data     50817000                       # number of ReadExReq miss cycles
system.l2cache.ReadExReq_miss_latency::total     50817000                       # number of ReadExReq miss cycles
system.l2cache.ReadSharedReq_miss_latency::cpu.inst    107970000                       # number of ReadSharedReq miss cycles
system.l2cache.ReadSharedReq_miss_latency::cpu.data    207283000                       # number of ReadSharedReq miss cycles
system.l2cache.ReadSharedReq_miss_latency::total    315253000                       # number of ReadSharedReq miss cycles
system.l2cache.demand_miss_latency::cpu.inst    107970000                       # number of demand (read+write) miss cycles
system.l2cache.demand_miss_latency::cpu.data    258100000                       # number of demand (read+write) miss cycles
system.l2cache.demand_miss_latency::total    366070000                       # number of demand (read+write) miss cycles
system.l2cache.overall_miss_latency::cpu.inst    107970000                       # number of overall miss cycles
system.l2cache.overall_miss_latency::cpu.data    258100000                       # number of overall miss cycles
system.l2cache.overall_miss_latency::total    366070000                       # number of overall miss cycles
system.l2cache.WritebackDirty_accesses::writebacks          575                       # number of WritebackDirty accesses(hits+misses)
system.l2cache.WritebackDirty_accesses::total          575                       # number of WritebackDirty accesses(hits+misses)
system.l2cache.ReadExReq_accesses::cpu.data          532                       # number of ReadExReq accesses(hits+misses)
system.l2cache.ReadExReq_accesses::total          532                       # number of ReadExReq accesses(hits+misses)
system.l2cache.ReadSharedReq_accesses::cpu.inst         1031                       # number of ReadSharedReq accesses(hits+misses)
system.l2cache.ReadSharedReq_accesses::cpu.data         2290                       # number of ReadSharedReq accesses(hits+misses)
system.l2cache.ReadSharedReq_accesses::total         3321                       # number of ReadSharedReq accesses(hits+misses)
system.l2cache.demand_accesses::cpu.inst         1031                       # number of demand (read+write) accesses
system.l2cache.demand_accesses::cpu.data         2822                       # number of demand (read+write) accesses
system.l2cache.demand_accesses::total            3853                       # number of demand (read+write) accesses
system.l2cache.overall_accesses::cpu.inst         1031                       # number of overall (read+write) accesses
system.l2cache.overall_accesses::cpu.data         2822                       # number of overall (read+write) accesses
system.l2cache.overall_accesses::total           3853                       # number of overall (read+write) accesses
system.l2cache.ReadExReq_miss_rate::cpu.data     0.937970                       # miss rate for ReadExReq accesses
system.l2cache.ReadExReq_miss_rate::total     0.937970                       # miss rate for ReadExReq accesses
system.l2cache.ReadSharedReq_miss_rate::cpu.inst     0.991271                       # miss rate for ReadSharedReq accesses
system.l2cache.ReadSharedReq_miss_rate::cpu.data     0.866812                       # miss rate for ReadSharedReq accesses
system.l2cache.ReadSharedReq_miss_rate::total     0.905450                       # miss rate for ReadSharedReq accesses
system.l2cache.demand_miss_rate::cpu.inst     0.991271                       # miss rate for demand accesses
system.l2cache.demand_miss_rate::cpu.data     0.880227                       # miss rate for demand accesses
system.l2cache.demand_miss_rate::total       0.909940                       # miss rate for demand accesses
system.l2cache.overall_miss_rate::cpu.inst     0.991271                       # miss rate for overall accesses
system.l2cache.overall_miss_rate::cpu.data     0.880227                       # miss rate for overall accesses
system.l2cache.overall_miss_rate::total      0.909940                       # miss rate for overall accesses
system.l2cache.ReadExReq_avg_miss_latency::cpu.data 101837.675351                       # average ReadExReq miss latency
system.l2cache.ReadExReq_avg_miss_latency::total 101837.675351                       # average ReadExReq miss latency
system.l2cache.ReadSharedReq_avg_miss_latency::cpu.inst 105645.792564                       # average ReadSharedReq miss latency
system.l2cache.ReadSharedReq_avg_miss_latency::cpu.data 104424.685139                       # average ReadSharedReq miss latency
system.l2cache.ReadSharedReq_avg_miss_latency::total 104839.707350                       # average ReadSharedReq miss latency
system.l2cache.demand_avg_miss_latency::cpu.inst 105645.792564                       # average overall miss latency
system.l2cache.demand_avg_miss_latency::cpu.data 103904.991948                       # average overall miss latency
system.l2cache.demand_avg_miss_latency::total 104412.435824                       # average overall miss latency
system.l2cache.overall_avg_miss_latency::cpu.inst 105645.792564                       # average overall miss latency
system.l2cache.overall_avg_miss_latency::cpu.data 103904.991948                       # average overall miss latency
system.l2cache.overall_avg_miss_latency::total 104412.435824                       # average overall miss latency
system.l2cache.blocked_cycles::no_mshrs             0                       # number of cycles access was blocked
system.l2cache.blocked_cycles::no_targets            0                       # number of cycles access was blocked
system.l2cache.blocked::no_mshrs                    0                       # number of cycles access was blocked
system.l2cache.blocked::no_targets                  0                       # number of cycles access was blocked
system.l2cache.avg_blocked_cycles::no_mshrs          nan                       # average number of cycles each access was blocked
system.l2cache.avg_blocked_cycles::no_targets          nan                       # average number of cycles each access was blocked
system.l2cache.ReadExReq_mshr_misses::cpu.data          499                       # number of ReadExReq MSHR misses
system.l2cache.ReadExReq_mshr_misses::total          499                       # number of ReadExReq MSHR misses
system.l2cache.ReadSharedReq_mshr_misses::cpu.inst         1022                       # number of ReadSharedReq MSHR misses
system.l2cache.ReadSharedReq_mshr_misses::cpu.data         1985                       # number of ReadSharedReq MSHR misses
system.l2cache.ReadSharedReq_mshr_misses::total         3007                       # number of ReadSharedReq MSHR misses
system.l2cache.demand_mshr_misses::cpu.inst         1022                       # number of demand (read+write) MSHR misses
system.l2cache.demand_mshr_misses::cpu.data         2484                       # number of demand (read+write) MSHR misses
system.l2cache.demand_mshr_misses::total         3506                       # number of demand (read+write) MSHR misses
system.l2cache.overall_mshr_misses::cpu.inst         1022                       # number of overall MSHR misses
system.l2cache.overall_mshr_misses::cpu.data         2484                       # number of overall MSHR misses
system.l2cache.overall_mshr_misses::total         3506                       # number of overall MSHR misses
system.l2cache.ReadExReq_mshr_miss_latency::cpu.data     40837000                       # number of ReadExReq MSHR miss cycles
system.l2cache.ReadExReq_mshr_miss_latency::total     40837000                       # number of ReadExReq MSHR miss cycles
system.l2cache.ReadSharedReq_mshr_miss_latency::cpu.inst     87530000                       # number of ReadSharedReq MSHR miss cycles
system.l2cache.ReadSharedReq_mshr_miss_latency::cpu.data    167583000                       # number of ReadSharedReq MSHR miss cycles
system.l2cache.ReadSharedReq_mshr_miss_latency::total    255113000                       # number of ReadSharedReq MSHR miss cycles
system.l2cache.demand_mshr_miss_latency::cpu.inst     87530000                       # number of demand (read+write) MSHR miss cycles
system.l2cache.demand_mshr_miss_latency::cpu.data    208420000                       # number of demand (read+write) MSHR miss cycles
system.l2cache.demand_mshr_miss_latency::total    295950000                       # number of demand (read+write) MSHR miss cycles
system.l2cache.overall_mshr_miss_latency::cpu.inst     87530000                       # number of overall MSHR miss cycles
system.l2cache.overall_mshr_miss_latency::cpu.data    208420000                       # number of overall MSHR miss cycles
system.l2cache.overall_mshr_miss_latency::total    295950000                       # number of overall MSHR miss cycles
system.l2cache.ReadExReq_mshr_miss_rate::cpu.data     0.937970                       # mshr miss rate for ReadExReq accesses
system.l2cache.ReadExReq_mshr_miss_rate::total     0.937970                       # mshr miss rate for ReadExReq accesses
system.l2cache.ReadSharedReq_mshr_miss_rate::cpu.inst     0.991271                       # mshr miss rate for ReadSharedReq accesses
system.l2cache.ReadSharedReq_mshr_miss_rate::cpu.data     0.866812                       # mshr miss rate for ReadSharedReq accesses
system.l2cache.ReadSharedReq_mshr_miss_rate::total     0.905450                       # mshr miss rate for ReadSharedReq accesses
system.l2cache.demand_mshr_miss_rate::cpu.inst     0.991271                       # mshr miss rate for demand accesses
system.l2cache.demand_mshr_miss_rate::cpu.data     0.880227                       # mshr miss rate for demand accesses
system.l2cache.demand_mshr_miss_rate::total     0.909940                       # mshr miss rate for demand accesses
system.l2cache.overall_mshr_miss_rate::cpu.inst     0.991271                       # mshr miss rate for overall accesses
system.l2cache.overall_mshr_miss_rate::cpu.data     0.880227                       # mshr miss rate for overall accesses
system.l2cache.overall_mshr_miss_rate::total     0.909940                       # mshr miss rate for overall accesses
system.l2cache.ReadExReq_avg_mshr_miss_latency::cpu.data 81837.675351                       # average ReadExReq mshr miss latency
system.l2cache.ReadExReq_avg_mshr_miss_latency::total 81837.675351                       # average ReadExReq mshr miss latency
system.l2cache.ReadSharedReq_avg_mshr_miss_latency::cpu.inst 85645.792564                       # average ReadSharedReq mshr miss latency
system.l2cache.ReadSharedReq_avg_mshr_miss_latency::cpu.data 84424.685139                       # average ReadSharedReq mshr miss latency
system.l2cache.ReadSharedReq_avg_mshr_miss_latency::total 84839.707350                       # average ReadSharedReq mshr miss latency
system.l2cache.demand_avg_mshr_miss_latency::cpu.inst 85645.792564                       # average overall mshr miss latency
system.l2cache.demand_avg_mshr_miss_latency::cpu.data 83904.991948                       # average overall mshr miss latency
system.l2cache.demand_avg_mshr_miss_latency::total 84412.435824                       # average overall mshr miss latency
system.l2cache.overall_avg_mshr_miss_latency::cpu.inst 85645.792564                       # average overall mshr miss latency
system.l2cache.overall_avg_mshr_miss_latency::cpu.data 83904.991948                       # average overall mshr miss latency
system.l2cache.overall_avg_mshr_miss_latency::total 84412.435824                       # average overall mshr miss latency
system.membus.snoop_filter.tot_requests          3506                       # Total number of requests made to the snoop filter.
system.membus.snoop_filter.hit_single_requests            0                       # Number of requests hitting in the snoop filter with a single holder of the requested data.
system.membus.snoop_filter.hit_multi_requests            0                       # Number of requests hitting in the snoop filter with multiple (>1) holders of the requested data.
system.membus.snoop_filter.tot_snoops               0                       # Total number of snoops made to the snoop filter.
system.membus.snoop_filter.hit_single_snoops            0                       # Number of snoops hitting in the snoop filter with a single holder of the requested data.
system.membus.snoop_filter.hit_multi_snoops            0                       # Number of snoops hitting in the snoop filter with multiple (>1) holders of the requested data.
system.membus.pwrStateResidencyTicks::UNDEFINED  36037269000                       # Cumulative time (in ticks) in various power states
system.membus.trans_dist::ReadResp               3007                       # Transaction distribution
system.membus.trans_dist::ReadExReq               499                       # Transaction distribution
system.membus.trans_dist::ReadExResp              499                       # Transaction distribution
system.membus.trans_dist::ReadSharedReq          3007                       # Transaction distribution
system.membus.pkt_count_system.l2cache.mem_side::system.mem_ctrl.port         7012                       # Packet count per connected master and slave (bytes)
system.membus.pkt_count_system.l2cache.mem_side::total         7012                       # Packet count per connected master and slave (bytes)
system.membus.pkt_count::total                   7012                       # Packet count per connected master and slave (bytes)
system.membus.pkt_size_system.l2cache.mem_side::system.mem_ctrl.port       224384                       # Cumulative packet size per connected master and slave (bytes)
system.membus.pkt_size_system.l2cache.mem_side::total       224384                       # Cumulative packet size per connected master and slave (bytes)
system.membus.pkt_size::total                  224384                       # Cumulative packet size per connected master and slave (bytes)
system.membus.snoops                                0                       # Total snoops (count)
system.membus.snoopTraffic                          0                       # Total snoop traffic (bytes)
system.membus.snoop_fanout::samples              3506                       # Request fanout histogram
system.membus.snoop_fanout::mean                    0                       # Request fanout histogram
system.membus.snoop_fanout::stdev                   0                       # Request fanout histogram
system.membus.snoop_fanout::underflows              0      0.00%      0.00% # Request fanout histogram
system.membus.snoop_fanout::0                    3506    100.00%    100.00% # Request fanout histogram
system.membus.snoop_fanout::1                       0      0.00%    100.00% # Request fanout histogram
system.membus.snoop_fanout::overflows               0      0.00%    100.00% # Request fanout histogram
system.membus.snoop_fanout::min_value               0                       # Request fanout histogram
system.membus.snoop_fanout::max_value               0                       # Request fanout histogram
system.membus.snoop_fanout::total                3506                       # Request fanout histogram
system.membus.reqLayer2.occupancy             3506000                       # Layer occupancy (ticks)
system.membus.reqLayer2.utilization               0.0                       # Layer utilization (%)
system.membus.respLayer0.occupancy           18626500                       # Layer occupancy (ticks)
system.membus.respLayer0.utilization              0.1                       # Layer utilization (%)

---------- End Simulation Statistics   ----------
